version 2
run General-0-20180215-12:55:32-3256
attr configname General
attr datetime 20180215-12:55:32
attr experiment General
attr inifile omnetpp_Sim.ini
attr iterationvars ""
attr iterationvars2 $repetition=0
attr measurement ""
attr network SASim
attr processid 3256
attr repetition 0
attr replication #0
attr resultdir results
attr runnumber 0
attr seedset 0

scalar SASim.node[0].nic.mac 	ACK_count 	0
scalar SASim.node[0].nic.mac 	channelSwitching_count 	0
scalar SASim.node[0].nic.mac 	"Total number of packets sent" 	0
scalar SASim.node[0].nic.phy 	nbFramesWithInterference 	244
scalar SASim.node[0].nic.phy 	nbFramesWithoutInterference 	4715
scalar SASim.node[0].nic.phy 	nbFramesWithInterferencePartial 	0
scalar SASim.node[0].nic.phy 	nbFramesWithoutInterferencePartial 	0
scalar SASim.node[0].nic.phy 	nbFramesWithInterferenceDropped 	170
scalar SASim.node[0].nic.phy 	nbFramesWithoutInterferenceDropped 	0
scalar SASim.node[0].appl 	"Total simulation time " 	60
scalar SASim.node[0].appl 	"Total number of generated packets " 	0
scalar SASim.node[0].batteryStats 	nominal 	13320000
attr unit  mW-s
scalar SASim.node[0].batteryStats 	total 	3640.8796316795
attr unit  mW-s
scalar SASim.node[0].batteryStats 	lifetime 	-1
attr unit  s
scalar SASim.node[0].batteryStats 	"Mean power consumption" 	60.681327194658
attr unit  mW
scalar SASim.node[0].batteryStats 	"num devices" 	1
scalar SASim.node[0].batteryStats 	"physical layer" 	0
scalar SASim.node[0].batteryStats 	"device total (mWs)" 	3640.8796358398
scalar SASim.node[0].batteryStats 	account 	0
scalar SASim.node[0].batteryStats 	"energy (mWs)" 	0
scalar SASim.node[0].batteryStats 	"time (s)" 	0
scalar SASim.node[0].batteryStats 	account 	1
scalar SASim.node[0].batteryStats 	"energy (mWs)" 	3638.6232870398
scalar SASim.node[0].batteryStats 	"time (s)" 	59.964128
scalar SASim.node[0].batteryStats 	account 	2
scalar SASim.node[0].batteryStats 	"energy (mWs)" 	2.2563488
scalar SASim.node[0].batteryStats 	"time (s)" 	0.035872
scalar SASim.node[0].batteryStats 	account 	3
scalar SASim.node[0].batteryStats 	"energy (mWs)" 	0
scalar SASim.node[0].batteryStats 	"time (s)" 	0
scalar SASim.node[0].batteryStats 	account 	4
scalar SASim.node[0].batteryStats 	"energy (mWs)" 	0
scalar SASim.node[0].batteryStats 	"time (s)" 	0
scalar SASim.node[1].nic.mac 	ACK_count 	59
scalar SASim.node[1].nic.mac 	channelSwitching_count 	1553
scalar SASim.node[1].nic.mac 	"Total number of packets sent" 	59
scalar SASim.node[1].nic.phy 	nbFramesWithInterference 	216
scalar SASim.node[1].nic.phy 	nbFramesWithoutInterference 	4726
scalar SASim.node[1].nic.phy 	nbFramesWithInterferencePartial 	0
scalar SASim.node[1].nic.phy 	nbFramesWithoutInterferencePartial 	0
scalar SASim.node[1].nic.phy 	nbFramesWithInterferenceDropped 	131
scalar SASim.node[1].nic.phy 	nbFramesWithoutInterferenceDropped 	0
scalar SASim.node[1].appl 	"Total simulation time " 	60
scalar SASim.node[1].appl 	"Total number of generated packets " 	60
scalar SASim.node[1].batteryStats 	nominal 	13320000
attr unit  mW-s
scalar SASim.node[1].batteryStats 	total 	3641.6128708404
attr unit  mW-s
scalar SASim.node[1].batteryStats 	lifetime 	-1
attr unit  s
scalar SASim.node[1].batteryStats 	"Mean power consumption" 	60.693547847339
attr unit  mW
scalar SASim.node[1].batteryStats 	"num devices" 	1
scalar SASim.node[1].batteryStats 	"physical layer" 	0
scalar SASim.node[1].batteryStats 	"device total (mWs)" 	3641.6128751998
scalar SASim.node[1].batteryStats 	account 	0
scalar SASim.node[1].batteryStats 	"energy (mWs)" 	0
scalar SASim.node[1].batteryStats 	"time (s)" 	0
scalar SASim.node[1].batteryStats 	account 	1
scalar SASim.node[1].batteryStats 	"energy (mWs)" 	3618.5814111998
scalar SASim.node[1].batteryStats 	"time (s)" 	59.63384
scalar SASim.node[1].batteryStats 	account 	2
scalar SASim.node[1].batteryStats 	"energy (mWs)" 	23.031464
scalar SASim.node[1].batteryStats 	"time (s)" 	0.36616
scalar SASim.node[1].batteryStats 	account 	3
scalar SASim.node[1].batteryStats 	"energy (mWs)" 	0
scalar SASim.node[1].batteryStats 	"time (s)" 	0
scalar SASim.node[1].batteryStats 	account 	4
scalar SASim.node[1].batteryStats 	"energy (mWs)" 	0
scalar SASim.node[1].batteryStats 	"time (s)" 	0
scalar SASim.node[2].nic.mac 	ACK_count 	0
scalar SASim.node[2].nic.mac 	channelSwitching_count 	0
scalar SASim.node[2].nic.mac 	"Total number of packets sent" 	0
scalar SASim.node[2].nic.phy 	nbFramesWithInterference 	203
scalar SASim.node[2].nic.phy 	nbFramesWithoutInterference 	4606
scalar SASim.node[2].nic.phy 	nbFramesWithInterferencePartial 	0
scalar SASim.node[2].nic.phy 	nbFramesWithoutInterferencePartial 	0
scalar SASim.node[2].nic.phy 	nbFramesWithInterferenceDropped 	200
scalar SASim.node[2].nic.phy 	nbFramesWithoutInterferenceDropped 	0
scalar SASim.node[2].appl 	"Total simulation time " 	60
scalar SASim.node[2].appl 	"Total number of generated packets " 	0
scalar SASim.node[2].batteryStats 	nominal 	13320000
attr unit  mW-s
scalar SASim.node[2].batteryStats 	total 	3640.8809815329
attr unit  mW-s
scalar SASim.node[2].batteryStats 	lifetime 	-1
attr unit  s
scalar SASim.node[2].batteryStats 	"Mean power consumption" 	60.681349692214
attr unit  mW
scalar SASim.node[2].batteryStats 	"num devices" 	1
scalar SASim.node[2].batteryStats 	"physical layer" 	0
scalar SASim.node[2].batteryStats 	"device total (mWs)" 	3640.8809855998
scalar SASim.node[2].batteryStats 	account 	0
scalar SASim.node[2].batteryStats 	"energy (mWs)" 	0
scalar SASim.node[2].batteryStats 	"time (s)" 	0
scalar SASim.node[2].batteryStats 	account 	1
scalar SASim.node[2].batteryStats 	"energy (mWs)" 	3638.5863935998
scalar SASim.node[2].batteryStats 	"time (s)" 	59.96352
scalar SASim.node[2].batteryStats 	account 	2
scalar SASim.node[2].batteryStats 	"energy (mWs)" 	2.294592
scalar SASim.node[2].batteryStats 	"time (s)" 	0.03648
scalar SASim.node[2].batteryStats 	account 	3
scalar SASim.node[2].batteryStats 	"energy (mWs)" 	0
scalar SASim.node[2].batteryStats 	"time (s)" 	0
scalar SASim.node[2].batteryStats 	account 	4
scalar SASim.node[2].batteryStats 	"energy (mWs)" 	0
scalar SASim.node[2].batteryStats 	"time (s)" 	0
scalar SASim.node[3].nic.mac 	ACK_count 	60
scalar SASim.node[3].nic.mac 	channelSwitching_count 	1513
scalar SASim.node[3].nic.mac 	"Total number of packets sent" 	60
scalar SASim.node[3].nic.phy 	nbFramesWithInterference 	195
scalar SASim.node[3].nic.phy 	nbFramesWithoutInterference 	4625
scalar SASim.node[3].nic.phy 	nbFramesWithInterferencePartial 	0
scalar SASim.node[3].nic.phy 	nbFramesWithoutInterferencePartial 	0
scalar SASim.node[3].nic.phy 	nbFramesWithInterferenceDropped 	131
scalar SASim.node[3].nic.phy 	nbFramesWithoutInterferenceDropped 	0
scalar SASim.node[3].appl 	"Total simulation time " 	60
scalar SASim.node[3].appl 	"Total number of generated packets " 	60
scalar SASim.node[3].batteryStats 	nominal 	13320000
attr unit  mW-s
scalar SASim.node[3].batteryStats 	total 	3641.6259067729
attr unit  mW-s
scalar SASim.node[3].batteryStats 	lifetime 	-1
attr unit  s
scalar SASim.node[3].batteryStats 	"Mean power consumption" 	60.693765112882
attr unit  mW
scalar SASim.node[3].batteryStats 	"num devices" 	1
scalar SASim.node[3].batteryStats 	"physical layer" 	0
scalar SASim.node[3].batteryStats 	"device total (mWs)" 	3641.6259110398
scalar SASim.node[3].batteryStats 	account 	0
scalar SASim.node[3].batteryStats 	"energy (mWs)" 	0
scalar SASim.node[3].batteryStats 	"time (s)" 	0
scalar SASim.node[3].batteryStats 	account 	1
scalar SASim.node[3].batteryStats 	"energy (mWs)" 	3618.2250982398
scalar SASim.node[3].batteryStats 	"time (s)" 	59.627968
scalar SASim.node[3].batteryStats 	account 	2
scalar SASim.node[3].batteryStats 	"energy (mWs)" 	23.4008128
scalar SASim.node[3].batteryStats 	"time (s)" 	0.372032
scalar SASim.node[3].batteryStats 	account 	3
scalar SASim.node[3].batteryStats 	"energy (mWs)" 	0
scalar SASim.node[3].batteryStats 	"time (s)" 	0
scalar SASim.node[3].batteryStats 	account 	4
scalar SASim.node[3].batteryStats 	"energy (mWs)" 	0
scalar SASim.node[3].batteryStats 	"time (s)" 	0
scalar SASim.node[4].nic.mac 	ACK_count 	0
scalar SASim.node[4].nic.mac 	channelSwitching_count 	0
scalar SASim.node[4].nic.mac 	"Total number of packets sent" 	0
scalar SASim.node[4].nic.phy 	nbFramesWithInterference 	246
scalar SASim.node[4].nic.phy 	nbFramesWithoutInterference 	4709
scalar SASim.node[4].nic.phy 	nbFramesWithInterferencePartial 	0
scalar SASim.node[4].nic.phy 	nbFramesWithoutInterferencePartial 	0
scalar SASim.node[4].nic.phy 	nbFramesWithInterferenceDropped 	159
scalar SASim.node[4].nic.phy 	nbFramesWithoutInterferenceDropped 	1
scalar SASim.node[4].appl 	"Total simulation time " 	60
scalar SASim.node[4].appl 	"Total number of generated packets " 	0
scalar SASim.node[4].batteryStats 	nominal 	13320000
attr unit  mW-s
scalar SASim.node[4].batteryStats 	total 	3640.8816563059
attr unit  mW-s
scalar SASim.node[4].batteryStats 	lifetime 	-1
attr unit  s
scalar SASim.node[4].batteryStats 	"Mean power consumption" 	60.681360938431
attr unit  mW
scalar SASim.node[4].batteryStats 	"num devices" 	1
scalar SASim.node[4].batteryStats 	"physical layer" 	0
scalar SASim.node[4].batteryStats 	"device total (mWs)" 	3640.8816604798
scalar SASim.node[4].batteryStats 	account 	0
scalar SASim.node[4].batteryStats 	"energy (mWs)" 	0
scalar SASim.node[4].batteryStats 	"time (s)" 	0
scalar SASim.node[4].batteryStats 	account 	1
scalar SASim.node[4].batteryStats 	"energy (mWs)" 	3638.5679468798
scalar SASim.node[4].batteryStats 	"time (s)" 	59.963216
scalar SASim.node[4].batteryStats 	account 	2
scalar SASim.node[4].batteryStats 	"energy (mWs)" 	2.3137136
scalar SASim.node[4].batteryStats 	"time (s)" 	0.036784
scalar SASim.node[4].batteryStats 	account 	3
scalar SASim.node[4].batteryStats 	"energy (mWs)" 	0
scalar SASim.node[4].batteryStats 	"time (s)" 	0
scalar SASim.node[4].batteryStats 	account 	4
scalar SASim.node[4].batteryStats 	"energy (mWs)" 	0
scalar SASim.node[4].batteryStats 	"time (s)" 	0
scalar SASim.node[5].nic.mac 	ACK_count 	60
scalar SASim.node[5].nic.mac 	channelSwitching_count 	1556
scalar SASim.node[5].nic.mac 	"Total number of packets sent" 	60
scalar SASim.node[5].nic.phy 	nbFramesWithInterference 	190
scalar SASim.node[5].nic.phy 	nbFramesWithoutInterference 	4729
scalar SASim.node[5].nic.phy 	nbFramesWithInterferencePartial 	0
scalar SASim.node[5].nic.phy 	nbFramesWithoutInterferencePartial 	0
scalar SASim.node[5].nic.phy 	nbFramesWithInterferenceDropped 	136
scalar SASim.node[5].nic.phy 	nbFramesWithoutInterferenceDropped 	0
scalar SASim.node[5].appl 	"Total simulation time " 	60
scalar SASim.node[5].appl 	"Total number of generated packets " 	60
scalar SASim.node[5].batteryStats 	nominal 	13320000
attr unit  mW-s
scalar SASim.node[5].batteryStats 	total 	3641.6313767377
attr unit  mW-s
scalar SASim.node[5].batteryStats 	lifetime 	-1
attr unit  s
scalar SASim.node[5].batteryStats 	"Mean power consumption" 	60.693856278962
attr unit  mW
scalar SASim.node[5].batteryStats 	"num devices" 	1
scalar SASim.node[5].batteryStats 	"physical layer" 	0
scalar SASim.node[5].batteryStats 	"device total (mWs)" 	3641.6313811198
scalar SASim.node[5].batteryStats 	account 	0
scalar SASim.node[5].batteryStats 	"energy (mWs)" 	0
scalar SASim.node[5].batteryStats 	"time (s)" 	0
scalar SASim.node[5].batteryStats 	account 	1
scalar SASim.node[5].batteryStats 	"energy (mWs)" 	3618.0755827198
scalar SASim.node[5].batteryStats 	"time (s)" 	59.625504
scalar SASim.node[5].batteryStats 	account 	2
scalar SASim.node[5].batteryStats 	"energy (mWs)" 	23.5557984
scalar SASim.node[5].batteryStats 	"time (s)" 	0.374496
scalar SASim.node[5].batteryStats 	account 	3
scalar SASim.node[5].batteryStats 	"energy (mWs)" 	0
scalar SASim.node[5].batteryStats 	"time (s)" 	0
scalar SASim.node[5].batteryStats 	account 	4
scalar SASim.node[5].batteryStats 	"energy (mWs)" 	0
scalar SASim.node[5].batteryStats 	"time (s)" 	0
scalar SASim.node[6].nic.mac 	ACK_count 	0
scalar SASim.node[6].nic.mac 	channelSwitching_count 	0
scalar SASim.node[6].nic.mac 	"Total number of packets sent" 	0
scalar SASim.node[6].nic.phy 	nbFramesWithInterference 	226
scalar SASim.node[6].nic.phy 	nbFramesWithoutInterference 	4801
scalar SASim.node[6].nic.phy 	nbFramesWithInterferencePartial 	0
scalar SASim.node[6].nic.phy 	nbFramesWithoutInterferencePartial 	0
scalar SASim.node[6].nic.phy 	nbFramesWithInterferenceDropped 	192
scalar SASim.node[6].nic.phy 	nbFramesWithoutInterferenceDropped 	1
scalar SASim.node[6].appl 	"Total simulation time " 	60
scalar SASim.node[6].appl 	"Total number of generated packets " 	0
scalar SASim.node[6].batteryStats 	nominal 	13320000
attr unit  mW-s
scalar SASim.node[6].batteryStats 	total 	3640.8809813876
attr unit  mW-s
scalar SASim.node[6].batteryStats 	lifetime 	-1
attr unit  s
scalar SASim.node[6].batteryStats 	"Mean power consumption" 	60.681349689793
attr unit  mW
scalar SASim.node[6].batteryStats 	"num devices" 	1
scalar SASim.node[6].batteryStats 	"physical layer" 	0
scalar SASim.node[6].batteryStats 	"device total (mWs)" 	3640.8809855998
scalar SASim.node[6].batteryStats 	account 	0
scalar SASim.node[6].batteryStats 	"energy (mWs)" 	0
scalar SASim.node[6].batteryStats 	"time (s)" 	0
scalar SASim.node[6].batteryStats 	account 	1
scalar SASim.node[6].batteryStats 	"energy (mWs)" 	3638.5863935998
scalar SASim.node[6].batteryStats 	"time (s)" 	59.96352
scalar SASim.node[6].batteryStats 	account 	2
scalar SASim.node[6].batteryStats 	"energy (mWs)" 	2.294592
scalar SASim.node[6].batteryStats 	"time (s)" 	0.03648
scalar SASim.node[6].batteryStats 	account 	3
scalar SASim.node[6].batteryStats 	"energy (mWs)" 	0
scalar SASim.node[6].batteryStats 	"time (s)" 	0
scalar SASim.node[6].batteryStats 	account 	4
scalar SASim.node[6].batteryStats 	"energy (mWs)" 	0
scalar SASim.node[6].batteryStats 	"time (s)" 	0
scalar SASim.node[7].nic.mac 	ACK_count 	60
scalar SASim.node[7].nic.mac 	channelSwitching_count 	1574
scalar SASim.node[7].nic.mac 	"Total number of packets sent" 	60
scalar SASim.node[7].nic.phy 	nbFramesWithInterference 	205
scalar SASim.node[7].nic.phy 	nbFramesWithoutInterference 	4822
scalar SASim.node[7].nic.phy 	nbFramesWithInterferencePartial 	0
scalar SASim.node[7].nic.phy 	nbFramesWithoutInterferencePartial 	0
scalar SASim.node[7].nic.phy 	nbFramesWithInterferenceDropped 	132
scalar SASim.node[7].nic.phy 	nbFramesWithoutInterferenceDropped 	0
scalar SASim.node[7].appl 	"Total simulation time " 	60
scalar SASim.node[7].appl 	"Total number of generated packets " 	60
scalar SASim.node[7].batteryStats 	nominal 	13320000
attr unit  mW-s
scalar SASim.node[7].batteryStats 	total 	3641.629813822
attr unit  mW-s
scalar SASim.node[7].batteryStats 	lifetime 	-1
attr unit  s
scalar SASim.node[7].batteryStats 	"Mean power consumption" 	60.693830230366
attr unit  mW
scalar SASim.node[7].batteryStats 	"num devices" 	1
scalar SASim.node[7].batteryStats 	"physical layer" 	0
scalar SASim.node[7].batteryStats 	"device total (mWs)" 	3641.6298182398
scalar SASim.node[7].batteryStats 	account 	0
scalar SASim.node[7].batteryStats 	"energy (mWs)" 	0
scalar SASim.node[7].batteryStats 	"time (s)" 	0
scalar SASim.node[7].batteryStats 	account 	1
scalar SASim.node[7].batteryStats 	"energy (mWs)" 	3618.1183014398
scalar SASim.node[7].batteryStats 	"time (s)" 	59.626208
scalar SASim.node[7].batteryStats 	account 	2
scalar SASim.node[7].batteryStats 	"energy (mWs)" 	23.5115168
scalar SASim.node[7].batteryStats 	"time (s)" 	0.373792
scalar SASim.node[7].batteryStats 	account 	3
scalar SASim.node[7].batteryStats 	"energy (mWs)" 	0
scalar SASim.node[7].batteryStats 	"time (s)" 	0
scalar SASim.node[7].batteryStats 	account 	4
scalar SASim.node[7].batteryStats 	"energy (mWs)" 	0
scalar SASim.node[7].batteryStats 	"time (s)" 	0
scalar SASim.node[8].nic.mac 	ACK_count 	0
scalar SASim.node[8].nic.mac 	channelSwitching_count 	0
scalar SASim.node[8].nic.mac 	"Total number of packets sent" 	0
scalar SASim.node[8].nic.phy 	nbFramesWithInterference 	266
scalar SASim.node[8].nic.phy 	nbFramesWithoutInterference 	4974
scalar SASim.node[8].nic.phy 	nbFramesWithInterferencePartial 	0
scalar SASim.node[8].nic.phy 	nbFramesWithoutInterferencePartial 	0
scalar SASim.node[8].nic.phy 	nbFramesWithInterferenceDropped 	166
scalar SASim.node[8].nic.phy 	nbFramesWithoutInterferenceDropped 	0
scalar SASim.node[8].appl 	"Total simulation time " 	60
scalar SASim.node[8].appl 	"Total number of generated packets " 	0
scalar SASim.node[8].batteryStats 	nominal 	13320000
attr unit  mW-s
scalar SASim.node[8].batteryStats 	total 	3640.8796314057
attr unit  mW-s
scalar SASim.node[8].batteryStats 	lifetime 	-1
attr unit  s
scalar SASim.node[8].batteryStats 	"Mean power consumption" 	60.681327190095
attr unit  mW
scalar SASim.node[8].batteryStats 	"num devices" 	1
scalar SASim.node[8].batteryStats 	"physical layer" 	0
scalar SASim.node[8].batteryStats 	"device total (mWs)" 	3640.8796358398
scalar SASim.node[8].batteryStats 	account 	0
scalar SASim.node[8].batteryStats 	"energy (mWs)" 	0
scalar SASim.node[8].batteryStats 	"time (s)" 	0
scalar SASim.node[8].batteryStats 	account 	1
scalar SASim.node[8].batteryStats 	"energy (mWs)" 	3638.6232870398
scalar SASim.node[8].batteryStats 	"time (s)" 	59.964128
scalar SASim.node[8].batteryStats 	account 	2
scalar SASim.node[8].batteryStats 	"energy (mWs)" 	2.2563488
scalar SASim.node[8].batteryStats 	"time (s)" 	0.035872
scalar SASim.node[8].batteryStats 	account 	3
scalar SASim.node[8].batteryStats 	"energy (mWs)" 	0
scalar SASim.node[8].batteryStats 	"time (s)" 	0
scalar SASim.node[8].batteryStats 	account 	4
scalar SASim.node[8].batteryStats 	"energy (mWs)" 	0
scalar SASim.node[8].batteryStats 	"time (s)" 	0
scalar SASim.node[9].nic.mac 	ACK_count 	59
scalar SASim.node[9].nic.mac 	channelSwitching_count 	1637
scalar SASim.node[9].nic.mac 	"Total number of packets sent" 	59
scalar SASim.node[9].nic.phy 	nbFramesWithInterference 	225
scalar SASim.node[9].nic.phy 	nbFramesWithoutInterference 	4974
scalar SASim.node[9].nic.phy 	nbFramesWithInterferencePartial 	0
scalar SASim.node[9].nic.phy 	nbFramesWithoutInterferencePartial 	0
scalar SASim.node[9].nic.phy 	nbFramesWithInterferenceDropped 	136
scalar SASim.node[9].nic.phy 	nbFramesWithoutInterferenceDropped 	0
scalar SASim.node[9].appl 	"Total simulation time " 	60
scalar SASim.node[9].appl 	"Total number of generated packets " 	60
scalar SASim.node[9].batteryStats 	nominal 	13320000
attr unit  mW-s
scalar SASim.node[9].batteryStats 	total 	3641.6230292786
attr unit  mW-s
scalar SASim.node[9].batteryStats 	lifetime 	-1
attr unit  s
scalar SASim.node[9].batteryStats 	"Mean power consumption" 	60.693717154643
attr unit  mW
scalar SASim.node[9].batteryStats 	"num devices" 	1
scalar SASim.node[9].batteryStats 	"physical layer" 	0
scalar SASim.node[9].batteryStats 	"device total (mWs)" 	3641.6230339198
scalar SASim.node[9].batteryStats 	account 	0
scalar SASim.node[9].batteryStats 	"energy (mWs)" 	0
scalar SASim.node[9].batteryStats 	"time (s)" 	0
scalar SASim.node[9].batteryStats 	account 	1
scalar SASim.node[9].batteryStats 	"energy (mWs)" 	3618.3037395198
scalar SASim.node[9].batteryStats 	"time (s)" 	59.629264
scalar SASim.node[9].batteryStats 	account 	2
scalar SASim.node[9].batteryStats 	"energy (mWs)" 	23.3192944
scalar SASim.node[9].batteryStats 	"time (s)" 	0.370736
scalar SASim.node[9].batteryStats 	account 	3
scalar SASim.node[9].batteryStats 	"energy (mWs)" 	0
scalar SASim.node[9].batteryStats 	"time (s)" 	0
scalar SASim.node[9].batteryStats 	account 	4
scalar SASim.node[9].batteryStats 	"energy (mWs)" 	0
scalar SASim.node[9].batteryStats 	"time (s)" 	0
scalar SASim.node[10].nic.mac 	ACK_count 	0
scalar SASim.node[10].nic.mac 	channelSwitching_count 	0
scalar SASim.node[10].nic.mac 	"Total number of packets sent" 	0
scalar SASim.node[10].nic.phy 	nbFramesWithInterference 	208
scalar SASim.node[10].nic.phy 	nbFramesWithoutInterference 	5020
scalar SASim.node[10].nic.phy 	nbFramesWithInterferencePartial 	0
scalar SASim.node[10].nic.phy 	nbFramesWithoutInterferencePartial 	0
scalar SASim.node[10].nic.phy 	nbFramesWithInterferenceDropped 	211
scalar SASim.node[10].nic.phy 	nbFramesWithoutInterferenceDropped 	2
scalar SASim.node[10].appl 	"Total simulation time " 	60
scalar SASim.node[10].appl 	"Total number of generated packets " 	0
scalar SASim.node[10].batteryStats 	nominal 	13320000
attr unit  mW-s
scalar SASim.node[10].batteryStats 	total 	3640.8796314038
attr unit  mW-s
scalar SASim.node[10].batteryStats 	lifetime 	-1
attr unit  s
scalar SASim.node[10].batteryStats 	"Mean power consumption" 	60.681327190064
attr unit  mW
scalar SASim.node[10].batteryStats 	"num devices" 	1
scalar SASim.node[10].batteryStats 	"physical layer" 	0
scalar SASim.node[10].batteryStats 	"device total (mWs)" 	3640.8796358398
scalar SASim.node[10].batteryStats 	account 	0
scalar SASim.node[10].batteryStats 	"energy (mWs)" 	0
scalar SASim.node[10].batteryStats 	"time (s)" 	0
scalar SASim.node[10].batteryStats 	account 	1
scalar SASim.node[10].batteryStats 	"energy (mWs)" 	3638.6232870398
scalar SASim.node[10].batteryStats 	"time (s)" 	59.964128
scalar SASim.node[10].batteryStats 	account 	2
scalar SASim.node[10].batteryStats 	"energy (mWs)" 	2.2563488
scalar SASim.node[10].batteryStats 	"time (s)" 	0.035872
scalar SASim.node[10].batteryStats 	account 	3
scalar SASim.node[10].batteryStats 	"energy (mWs)" 	0
scalar SASim.node[10].batteryStats 	"time (s)" 	0
scalar SASim.node[10].batteryStats 	account 	4
scalar SASim.node[10].batteryStats 	"energy (mWs)" 	0
scalar SASim.node[10].batteryStats 	"time (s)" 	0
scalar SASim.node[11].nic.mac 	ACK_count 	59
scalar SASim.node[11].nic.mac 	channelSwitching_count 	1655
scalar SASim.node[11].nic.mac 	"Total number of packets sent" 	59
scalar SASim.node[11].nic.phy 	nbFramesWithInterference 	214
scalar SASim.node[11].nic.phy 	nbFramesWithoutInterference 	5037
scalar SASim.node[11].nic.phy 	nbFramesWithInterferencePartial 	0
scalar SASim.node[11].nic.phy 	nbFramesWithoutInterferencePartial 	0
scalar SASim.node[11].nic.phy 	nbFramesWithInterferenceDropped 	128
scalar SASim.node[11].nic.phy 	nbFramesWithoutInterferenceDropped 	0
scalar SASim.node[11].appl 	"Total simulation time " 	60
scalar SASim.node[11].appl 	"Total number of generated packets " 	60
scalar SASim.node[11].batteryStats 	nominal 	13320000
attr unit  mW-s
scalar SASim.node[11].batteryStats 	total 	3641.6175592002
attr unit  mW-s
scalar SASim.node[11].batteryStats 	lifetime 	-1
attr unit  s
scalar SASim.node[11].batteryStats 	"Mean power consumption" 	60.693625986669
attr unit  mW
scalar SASim.node[11].batteryStats 	"num devices" 	1
scalar SASim.node[11].batteryStats 	"physical layer" 	0
scalar SASim.node[11].batteryStats 	"device total (mWs)" 	3641.6175638398
scalar SASim.node[11].batteryStats 	account 	0
scalar SASim.node[11].batteryStats 	"energy (mWs)" 	0
scalar SASim.node[11].batteryStats 	"time (s)" 	0
scalar SASim.node[11].batteryStats 	account 	1
scalar SASim.node[11].batteryStats 	"energy (mWs)" 	3618.4532550398
scalar SASim.node[11].batteryStats 	"time (s)" 	59.631728
scalar SASim.node[11].batteryStats 	account 	2
scalar SASim.node[11].batteryStats 	"energy (mWs)" 	23.1643088
scalar SASim.node[11].batteryStats 	"time (s)" 	0.368272
scalar SASim.node[11].batteryStats 	account 	3
scalar SASim.node[11].batteryStats 	"energy (mWs)" 	0
scalar SASim.node[11].batteryStats 	"time (s)" 	0
scalar SASim.node[11].batteryStats 	account 	4
scalar SASim.node[11].batteryStats 	"energy (mWs)" 	0
scalar SASim.node[11].batteryStats 	"time (s)" 	0
scalar SASim.node[12].nic.mac 	ACK_count 	0
scalar SASim.node[12].nic.mac 	channelSwitching_count 	0
scalar SASim.node[12].nic.mac 	"Total number of packets sent" 	0
scalar SASim.node[12].nic.phy 	nbFramesWithInterference 	240
scalar SASim.node[12].nic.phy 	nbFramesWithoutInterference 	4992
scalar SASim.node[12].nic.phy 	nbFramesWithInterferencePartial 	0
scalar SASim.node[12].nic.phy 	nbFramesWithoutInterferencePartial 	0
scalar SASim.node[12].nic.phy 	nbFramesWithInterferenceDropped 	187
scalar SASim.node[12].nic.phy 	nbFramesWithoutInterferenceDropped 	0
scalar SASim.node[12].appl 	"Total simulation time " 	60
scalar SASim.node[12].appl 	"Total number of generated packets " 	0
scalar SASim.node[12].batteryStats 	nominal 	13320000
attr unit  mW-s
scalar SASim.node[12].batteryStats 	total 	3640.8796314169
attr unit  mW-s
scalar SASim.node[12].batteryStats 	lifetime 	-1
attr unit  s
scalar SASim.node[12].batteryStats 	"Mean power consumption" 	60.681327190281
attr unit  mW
scalar SASim.node[12].batteryStats 	"num devices" 	1
scalar SASim.node[12].batteryStats 	"physical layer" 	0
scalar SASim.node[12].batteryStats 	"device total (mWs)" 	3640.8796358398
scalar SASim.node[12].batteryStats 	account 	0
scalar SASim.node[12].batteryStats 	"energy (mWs)" 	0
scalar SASim.node[12].batteryStats 	"time (s)" 	0
scalar SASim.node[12].batteryStats 	account 	1
scalar SASim.node[12].batteryStats 	"energy (mWs)" 	3638.6232870398
scalar SASim.node[12].batteryStats 	"time (s)" 	59.964128
scalar SASim.node[12].batteryStats 	account 	2
scalar SASim.node[12].batteryStats 	"energy (mWs)" 	2.2563488
scalar SASim.node[12].batteryStats 	"time (s)" 	0.035872
scalar SASim.node[12].batteryStats 	account 	3
scalar SASim.node[12].batteryStats 	"energy (mWs)" 	0
scalar SASim.node[12].batteryStats 	"time (s)" 	0
scalar SASim.node[12].batteryStats 	account 	4
scalar SASim.node[12].batteryStats 	"energy (mWs)" 	0
scalar SASim.node[12].batteryStats 	"time (s)" 	0
scalar SASim.node[13].nic.mac 	ACK_count 	59
scalar SASim.node[13].nic.mac 	channelSwitching_count 	1644
scalar SASim.node[13].nic.mac 	"Total number of packets sent" 	59
scalar SASim.node[13].nic.phy 	nbFramesWithInterference 	240
scalar SASim.node[13].nic.phy 	nbFramesWithoutInterference 	5001
scalar SASim.node[13].nic.phy 	nbFramesWithInterferencePartial 	0
scalar SASim.node[13].nic.phy 	nbFramesWithoutInterferencePartial 	0
scalar SASim.node[13].nic.phy 	nbFramesWithInterferenceDropped 	115
scalar SASim.node[13].nic.phy 	nbFramesWithoutInterferenceDropped 	0
scalar SASim.node[13].appl 	"Total simulation time " 	60
scalar SASim.node[13].appl 	"Total number of generated packets " 	60
scalar SASim.node[13].batteryStats 	nominal 	13320000
attr unit  mW-s
scalar SASim.node[13].batteryStats 	total 	3641.6183406524
attr unit  mW-s
scalar SASim.node[13].batteryStats 	lifetime 	-1
attr unit  s
scalar SASim.node[13].batteryStats 	"Mean power consumption" 	60.693639010874
attr unit  mW
scalar SASim.node[13].batteryStats 	"num devices" 	1
scalar SASim.node[13].batteryStats 	"physical layer" 	0
scalar SASim.node[13].batteryStats 	"device total (mWs)" 	3641.6183452798
scalar SASim.node[13].batteryStats 	account 	0
scalar SASim.node[13].batteryStats 	"energy (mWs)" 	0
scalar SASim.node[13].batteryStats 	"time (s)" 	0
scalar SASim.node[13].batteryStats 	account 	1
scalar SASim.node[13].batteryStats 	"energy (mWs)" 	3618.4318956798
scalar SASim.node[13].batteryStats 	"time (s)" 	59.631376
scalar SASim.node[13].batteryStats 	account 	2
scalar SASim.node[13].batteryStats 	"energy (mWs)" 	23.1864496
scalar SASim.node[13].batteryStats 	"time (s)" 	0.368624
scalar SASim.node[13].batteryStats 	account 	3
scalar SASim.node[13].batteryStats 	"energy (mWs)" 	0
scalar SASim.node[13].batteryStats 	"time (s)" 	0
scalar SASim.node[13].batteryStats 	account 	4
scalar SASim.node[13].batteryStats 	"energy (mWs)" 	0
scalar SASim.node[13].batteryStats 	"time (s)" 	0
scalar SASim.node[14].nic.mac 	ACK_count 	0
scalar SASim.node[14].nic.mac 	channelSwitching_count 	0
scalar SASim.node[14].nic.mac 	"Total number of packets sent" 	0
scalar SASim.node[14].nic.phy 	nbFramesWithInterference 	231
scalar SASim.node[14].nic.phy 	nbFramesWithoutInterference 	4861
scalar SASim.node[14].nic.phy 	nbFramesWithInterferencePartial 	0
scalar SASim.node[14].nic.phy 	nbFramesWithoutInterferencePartial 	0
scalar SASim.node[14].nic.phy 	nbFramesWithInterferenceDropped 	183
scalar SASim.node[14].nic.phy 	nbFramesWithoutInterferenceDropped 	0
scalar SASim.node[14].appl 	"Total simulation time " 	60
scalar SASim.node[14].appl 	"Total number of generated packets " 	0
scalar SASim.node[14].batteryStats 	nominal 	13320000
attr unit  mW-s
scalar SASim.node[14].batteryStats 	total 	3640.8809813354
attr unit  mW-s
scalar SASim.node[14].batteryStats 	lifetime 	-1
attr unit  s
scalar SASim.node[14].batteryStats 	"Mean power consumption" 	60.681349688924
attr unit  mW
scalar SASim.node[14].batteryStats 	"num devices" 	1
scalar SASim.node[14].batteryStats 	"physical layer" 	0
scalar SASim.node[14].batteryStats 	"device total (mWs)" 	3640.8809855998
scalar SASim.node[14].batteryStats 	account 	0
scalar SASim.node[14].batteryStats 	"energy (mWs)" 	0
scalar SASim.node[14].batteryStats 	"time (s)" 	0
scalar SASim.node[14].batteryStats 	account 	1
scalar SASim.node[14].batteryStats 	"energy (mWs)" 	3638.5863935998
scalar SASim.node[14].batteryStats 	"time (s)" 	59.96352
scalar SASim.node[14].batteryStats 	account 	2
scalar SASim.node[14].batteryStats 	"energy (mWs)" 	2.294592
scalar SASim.node[14].batteryStats 	"time (s)" 	0.03648
scalar SASim.node[14].batteryStats 	account 	3
scalar SASim.node[14].batteryStats 	"energy (mWs)" 	0
scalar SASim.node[14].batteryStats 	"time (s)" 	0
scalar SASim.node[14].batteryStats 	account 	4
scalar SASim.node[14].batteryStats 	"energy (mWs)" 	0
scalar SASim.node[14].batteryStats 	"time (s)" 	0
scalar SASim.node[15].nic.mac 	ACK_count 	60
scalar SASim.node[15].nic.mac 	channelSwitching_count 	1592
scalar SASim.node[15].nic.mac 	"Total number of packets sent" 	60
scalar SASim.node[15].nic.phy 	nbFramesWithInterference 	235
scalar SASim.node[15].nic.phy 	nbFramesWithoutInterference 	4872
scalar SASim.node[15].nic.phy 	nbFramesWithInterferencePartial 	0
scalar SASim.node[15].nic.phy 	nbFramesWithoutInterferencePartial 	0
scalar SASim.node[15].nic.phy 	nbFramesWithInterferenceDropped 	107
scalar SASim.node[15].nic.phy 	nbFramesWithoutInterferenceDropped 	0
scalar SASim.node[15].appl 	"Total simulation time " 	60
scalar SASim.node[15].appl 	"Total number of generated packets " 	60
scalar SASim.node[15].batteryStats 	nominal 	13320000
attr unit  mW-s
scalar SASim.node[15].batteryStats 	total 	3641.6298137698
attr unit  mW-s
scalar SASim.node[15].batteryStats 	lifetime 	-1
attr unit  s
scalar SASim.node[15].batteryStats 	"Mean power consumption" 	60.693830229497
attr unit  mW
scalar SASim.node[15].batteryStats 	"num devices" 	1
scalar SASim.node[15].batteryStats 	"physical layer" 	0
scalar SASim.node[15].batteryStats 	"device total (mWs)" 	3641.6298182398
scalar SASim.node[15].batteryStats 	account 	0
scalar SASim.node[15].batteryStats 	"energy (mWs)" 	0
scalar SASim.node[15].batteryStats 	"time (s)" 	0
scalar SASim.node[15].batteryStats 	account 	1
scalar SASim.node[15].batteryStats 	"energy (mWs)" 	3618.1183014398
scalar SASim.node[15].batteryStats 	"time (s)" 	59.626208
scalar SASim.node[15].batteryStats 	account 	2
scalar SASim.node[15].batteryStats 	"energy (mWs)" 	23.5115168
scalar SASim.node[15].batteryStats 	"time (s)" 	0.373792
scalar SASim.node[15].batteryStats 	account 	3
scalar SASim.node[15].batteryStats 	"energy (mWs)" 	0
scalar SASim.node[15].batteryStats 	"time (s)" 	0
scalar SASim.node[15].batteryStats 	account 	4
scalar SASim.node[15].batteryStats 	"energy (mWs)" 	0
scalar SASim.node[15].batteryStats 	"time (s)" 	0
scalar SASim.node[16].nic.mac 	ACK_count 	0
scalar SASim.node[16].nic.mac 	channelSwitching_count 	0
scalar SASim.node[16].nic.mac 	"Total number of packets sent" 	0
scalar SASim.node[16].nic.phy 	nbFramesWithInterference 	253
scalar SASim.node[16].nic.phy 	nbFramesWithoutInterference 	4960
scalar SASim.node[16].nic.phy 	nbFramesWithInterferencePartial 	0
scalar SASim.node[16].nic.phy 	nbFramesWithoutInterferencePartial 	0
scalar SASim.node[16].nic.phy 	nbFramesWithInterferenceDropped 	174
scalar SASim.node[16].nic.phy 	nbFramesWithoutInterferenceDropped 	0
scalar SASim.node[16].appl 	"Total simulation time " 	60
scalar SASim.node[16].appl 	"Total number of generated packets " 	0
scalar SASim.node[16].batteryStats 	nominal 	13320000
attr unit  mW-s
scalar SASim.node[16].batteryStats 	total 	3640.8782816902
attr unit  mW-s
scalar SASim.node[16].batteryStats 	lifetime 	-1
attr unit  s
scalar SASim.node[16].batteryStats 	"Mean power consumption" 	60.681304694836
attr unit  mW
scalar SASim.node[16].batteryStats 	"num devices" 	1
scalar SASim.node[16].batteryStats 	"physical layer" 	0
scalar SASim.node[16].batteryStats 	"device total (mWs)" 	3640.8782860798
scalar SASim.node[16].batteryStats 	account 	0
scalar SASim.node[16].batteryStats 	"energy (mWs)" 	0
scalar SASim.node[16].batteryStats 	"time (s)" 	0
scalar SASim.node[16].batteryStats 	account 	1
scalar SASim.node[16].batteryStats 	"energy (mWs)" 	3638.6601804798
scalar SASim.node[16].batteryStats 	"time (s)" 	59.964736
scalar SASim.node[16].batteryStats 	account 	2
scalar SASim.node[16].batteryStats 	"energy (mWs)" 	2.2181056
scalar SASim.node[16].batteryStats 	"time (s)" 	0.035264
scalar SASim.node[16].batteryStats 	account 	3
scalar SASim.node[16].batteryStats 	"energy (mWs)" 	0
scalar SASim.node[16].batteryStats 	"time (s)" 	0
scalar SASim.node[16].batteryStats 	account 	4
scalar SASim.node[16].batteryStats 	"energy (mWs)" 	0
scalar SASim.node[16].batteryStats 	"time (s)" 	0
scalar SASim.node[17].nic.mac 	ACK_count 	58
scalar SASim.node[17].nic.mac 	channelSwitching_count 	1629
scalar SASim.node[17].nic.mac 	"Total number of packets sent" 	58
scalar SASim.node[17].nic.phy 	nbFramesWithInterference 	237
scalar SASim.node[17].nic.phy 	nbFramesWithoutInterference 	4957
scalar SASim.node[17].nic.phy 	nbFramesWithInterferencePartial 	0
scalar SASim.node[17].nic.phy 	nbFramesWithoutInterferencePartial 	0
scalar SASim.node[17].nic.phy 	nbFramesWithInterferenceDropped 	123
scalar SASim.node[17].nic.phy 	nbFramesWithoutInterferenceDropped 	0
scalar SASim.node[17].appl 	"Total simulation time " 	60
scalar SASim.node[17].appl 	"Total number of generated packets " 	60
scalar SASim.node[17].batteryStats 	nominal 	13320000
attr unit  mW-s
scalar SASim.node[17].batteryStats 	total 	3641.6115563605
attr unit  mW-s
scalar SASim.node[17].batteryStats 	lifetime 	-1
attr unit  s
scalar SASim.node[17].batteryStats 	"Mean power consumption" 	60.693525939342
attr unit  mW
scalar SASim.node[17].batteryStats 	"num devices" 	1
scalar SASim.node[17].batteryStats 	"physical layer" 	0
scalar SASim.node[17].batteryStats 	"device total (mWs)" 	3641.6115609598
scalar SASim.node[17].batteryStats 	account 	0
scalar SASim.node[17].batteryStats 	"energy (mWs)" 	0
scalar SASim.node[17].batteryStats 	"time (s)" 	0
scalar SASim.node[17].batteryStats 	account 	1
scalar SASim.node[17].batteryStats 	"energy (mWs)" 	3618.6173337598
scalar SASim.node[17].batteryStats 	"time (s)" 	59.634432
scalar SASim.node[17].batteryStats 	account 	2
scalar SASim.node[17].batteryStats 	"energy (mWs)" 	22.9942272
scalar SASim.node[17].batteryStats 	"time (s)" 	0.365568
scalar SASim.node[17].batteryStats 	account 	3
scalar SASim.node[17].batteryStats 	"energy (mWs)" 	0
scalar SASim.node[17].batteryStats 	"time (s)" 	0
scalar SASim.node[17].batteryStats 	account 	4
scalar SASim.node[17].batteryStats 	"energy (mWs)" 	0
scalar SASim.node[17].batteryStats 	"time (s)" 	0
scalar SASim.node[18].nic.mac 	ACK_count 	0
scalar SASim.node[18].nic.mac 	channelSwitching_count 	0
scalar SASim.node[18].nic.mac 	"Total number of packets sent" 	0
scalar SASim.node[18].nic.phy 	nbFramesWithInterference 	240
scalar SASim.node[18].nic.phy 	nbFramesWithoutInterference 	4841
scalar SASim.node[18].nic.phy 	nbFramesWithInterferencePartial 	0
scalar SASim.node[18].nic.phy 	nbFramesWithoutInterferencePartial 	0
scalar SASim.node[18].nic.phy 	nbFramesWithInterferenceDropped 	176
scalar SASim.node[18].nic.phy 	nbFramesWithoutInterferenceDropped 	0
scalar SASim.node[18].appl 	"Total simulation time " 	60
scalar SASim.node[18].appl 	"Total number of generated packets " 	0
scalar SASim.node[18].batteryStats 	nominal 	13320000
attr unit  mW-s
scalar SASim.node[18].batteryStats 	total 	3640.8796315491
attr unit  mW-s
scalar SASim.node[18].batteryStats 	lifetime 	-1
attr unit  s
scalar SASim.node[18].batteryStats 	"Mean power consumption" 	60.681327192485
attr unit  mW
scalar SASim.node[18].batteryStats 	"num devices" 	1
scalar SASim.node[18].batteryStats 	"physical layer" 	0
scalar SASim.node[18].batteryStats 	"device total (mWs)" 	3640.8796358398
scalar SASim.node[18].batteryStats 	account 	0
scalar SASim.node[18].batteryStats 	"energy (mWs)" 	0
scalar SASim.node[18].batteryStats 	"time (s)" 	0
scalar SASim.node[18].batteryStats 	account 	1
scalar SASim.node[18].batteryStats 	"energy (mWs)" 	3638.6232870398
scalar SASim.node[18].batteryStats 	"time (s)" 	59.964128
scalar SASim.node[18].batteryStats 	account 	2
scalar SASim.node[18].batteryStats 	"energy (mWs)" 	2.2563488
scalar SASim.node[18].batteryStats 	"time (s)" 	0.035872
scalar SASim.node[18].batteryStats 	account 	3
scalar SASim.node[18].batteryStats 	"energy (mWs)" 	0
scalar SASim.node[18].batteryStats 	"time (s)" 	0
scalar SASim.node[18].batteryStats 	account 	4
scalar SASim.node[18].batteryStats 	"energy (mWs)" 	0
scalar SASim.node[18].batteryStats 	"time (s)" 	0
scalar SASim.node[19].nic.mac 	ACK_count 	59
scalar SASim.node[19].nic.mac 	channelSwitching_count 	1584
scalar SASim.node[19].nic.mac 	"Total number of packets sent" 	59
scalar SASim.node[19].nic.phy 	nbFramesWithInterference 	212
scalar SASim.node[19].nic.phy 	nbFramesWithoutInterference 	4831
scalar SASim.node[19].nic.phy 	nbFramesWithInterferencePartial 	0
scalar SASim.node[19].nic.phy 	nbFramesWithoutInterferencePartial 	0
scalar SASim.node[19].nic.phy 	nbFramesWithInterferenceDropped 	130
scalar SASim.node[19].nic.phy 	nbFramesWithoutInterferenceDropped 	0
scalar SASim.node[19].appl 	"Total simulation time " 	60
scalar SASim.node[19].appl 	"Total number of generated packets " 	60
scalar SASim.node[19].batteryStats 	nominal 	13320000
attr unit  mW-s
scalar SASim.node[19].batteryStats 	total 	3641.6347510088
attr unit  mW-s
scalar SASim.node[19].batteryStats 	lifetime 	-1
attr unit  s
scalar SASim.node[19].batteryStats 	"Mean power consumption" 	60.693912516814
attr unit  mW
scalar SASim.node[19].batteryStats 	"num devices" 	1
scalar SASim.node[19].batteryStats 	"physical layer" 	0
scalar SASim.node[19].batteryStats 	"device total (mWs)" 	3641.6347555198
scalar SASim.node[19].batteryStats 	account 	0
scalar SASim.node[19].batteryStats 	"energy (mWs)" 	0
scalar SASim.node[19].batteryStats 	"time (s)" 	0
scalar SASim.node[19].batteryStats 	account 	1
scalar SASim.node[19].batteryStats 	"energy (mWs)" 	3617.9833491198
scalar SASim.node[19].batteryStats 	"time (s)" 	59.623984
scalar SASim.node[19].batteryStats 	account 	2
scalar SASim.node[19].batteryStats 	"energy (mWs)" 	23.6514064
scalar SASim.node[19].batteryStats 	"time (s)" 	0.376016
scalar SASim.node[19].batteryStats 	account 	3
scalar SASim.node[19].batteryStats 	"energy (mWs)" 	0
scalar SASim.node[19].batteryStats 	"time (s)" 	0
scalar SASim.node[19].batteryStats 	account 	4
scalar SASim.node[19].batteryStats 	"energy (mWs)" 	0
scalar SASim.node[19].batteryStats 	"time (s)" 	0
scalar SASim.node[20].nic.mac 	ACK_count 	0
scalar SASim.node[20].nic.mac 	channelSwitching_count 	0
scalar SASim.node[20].nic.mac 	"Total number of packets sent" 	0
scalar SASim.node[20].nic.phy 	nbFramesWithInterference 	239
scalar SASim.node[20].nic.phy 	nbFramesWithoutInterference 	5043
scalar SASim.node[20].nic.phy 	nbFramesWithInterferencePartial 	0
scalar SASim.node[20].nic.phy 	nbFramesWithoutInterferencePartial 	0
scalar SASim.node[20].nic.phy 	nbFramesWithInterferenceDropped 	185
scalar SASim.node[20].nic.phy 	nbFramesWithoutInterferenceDropped 	0
scalar SASim.node[20].appl 	"Total simulation time " 	60
scalar SASim.node[20].appl 	"Total number of generated packets " 	0
scalar SASim.node[20].batteryStats 	nominal 	13320000
attr unit  mW-s
scalar SASim.node[20].batteryStats 	total 	3640.8742323779
attr unit  mW-s
scalar SASim.node[20].batteryStats 	lifetime 	-1
attr unit  s
scalar SASim.node[20].batteryStats 	"Mean power consumption" 	60.681237206298
attr unit  mW
scalar SASim.node[20].batteryStats 	"num devices" 	1
scalar SASim.node[20].batteryStats 	"physical layer" 	0
scalar SASim.node[20].batteryStats 	"device total (mWs)" 	3640.8742367998
scalar SASim.node[20].batteryStats 	account 	0
scalar SASim.node[20].batteryStats 	"energy (mWs)" 	0
scalar SASim.node[20].batteryStats 	"time (s)" 	0
scalar SASim.node[20].batteryStats 	account 	1
scalar SASim.node[20].batteryStats 	"energy (mWs)" 	3638.7708607998
scalar SASim.node[20].batteryStats 	"time (s)" 	59.96656
scalar SASim.node[20].batteryStats 	account 	2
scalar SASim.node[20].batteryStats 	"energy (mWs)" 	2.103376
scalar SASim.node[20].batteryStats 	"time (s)" 	0.03344
scalar SASim.node[20].batteryStats 	account 	3
scalar SASim.node[20].batteryStats 	"energy (mWs)" 	0
scalar SASim.node[20].batteryStats 	"time (s)" 	0
scalar SASim.node[20].batteryStats 	account 	4
scalar SASim.node[20].batteryStats 	"energy (mWs)" 	0
scalar SASim.node[20].batteryStats 	"time (s)" 	0
scalar SASim.node[21].nic.mac 	ACK_count 	55
scalar SASim.node[21].nic.mac 	channelSwitching_count 	1652
scalar SASim.node[21].nic.mac 	"Total number of packets sent" 	55
scalar SASim.node[21].nic.phy 	nbFramesWithInterference 	198
scalar SASim.node[21].nic.phy 	nbFramesWithoutInterference 	5036
scalar SASim.node[21].nic.phy 	nbFramesWithInterferencePartial 	0
scalar SASim.node[21].nic.phy 	nbFramesWithoutInterferencePartial 	0
scalar SASim.node[21].nic.phy 	nbFramesWithInterferenceDropped 	157
scalar SASim.node[21].nic.phy 	nbFramesWithoutInterferenceDropped 	0
scalar SASim.node[21].appl 	"Total simulation time " 	60
scalar SASim.node[21].appl 	"Total number of generated packets " 	60
scalar SASim.node[21].batteryStats 	nominal 	13320000
attr unit  mW-s
scalar SASim.node[21].batteryStats 	total 	3641.5763560142
attr unit  mW-s
scalar SASim.node[21].batteryStats 	lifetime 	-1
attr unit  s
scalar SASim.node[21].batteryStats 	"Mean power consumption" 	60.692939266904
attr unit  mW
scalar SASim.node[21].batteryStats 	"num devices" 	1
scalar SASim.node[21].batteryStats 	"physical layer" 	0
scalar SASim.node[21].batteryStats 	"device total (mWs)" 	3641.5763606398
scalar SASim.node[21].batteryStats 	account 	0
scalar SASim.node[21].batteryStats 	"energy (mWs)" 	0
scalar SASim.node[21].batteryStats 	"time (s)" 	0
scalar SASim.node[21].batteryStats 	account 	1
scalar SASim.node[21].batteryStats 	"energy (mWs)" 	3619.5794758398
scalar SASim.node[21].batteryStats 	"time (s)" 	59.650288
scalar SASim.node[21].batteryStats 	account 	2
scalar SASim.node[21].batteryStats 	"energy (mWs)" 	21.9968848
scalar SASim.node[21].batteryStats 	"time (s)" 	0.349712
scalar SASim.node[21].batteryStats 	account 	3
scalar SASim.node[21].batteryStats 	"energy (mWs)" 	0
scalar SASim.node[21].batteryStats 	"time (s)" 	0
scalar SASim.node[21].batteryStats 	account 	4
scalar SASim.node[21].batteryStats 	"energy (mWs)" 	0
scalar SASim.node[21].batteryStats 	"time (s)" 	0
scalar SASim.node[22].nic.mac 	ACK_count 	0
scalar SASim.node[22].nic.mac 	channelSwitching_count 	0
scalar SASim.node[22].nic.mac 	"Total number of packets sent" 	0
scalar SASim.node[22].nic.phy 	nbFramesWithInterference 	225
scalar SASim.node[22].nic.phy 	nbFramesWithoutInterference 	4633
scalar SASim.node[22].nic.phy 	nbFramesWithInterferencePartial 	0
scalar SASim.node[22].nic.phy 	nbFramesWithoutInterferencePartial 	0
scalar SASim.node[22].nic.phy 	nbFramesWithInterferenceDropped 	181
scalar SASim.node[22].nic.phy 	nbFramesWithoutInterferenceDropped 	0
scalar SASim.node[22].appl 	"Total simulation time " 	60
scalar SASim.node[22].appl 	"Total number of generated packets " 	0
scalar SASim.node[22].batteryStats 	nominal 	13320000
attr unit  mW-s
scalar SASim.node[22].batteryStats 	total 	3640.8796317149
attr unit  mW-s
scalar SASim.node[22].batteryStats 	lifetime 	-1
attr unit  s
scalar SASim.node[22].batteryStats 	"Mean power consumption" 	60.681327195248
attr unit  mW
scalar SASim.node[22].batteryStats 	"num devices" 	1
scalar SASim.node[22].batteryStats 	"physical layer" 	0
scalar SASim.node[22].batteryStats 	"device total (mWs)" 	3640.8796358398
scalar SASim.node[22].batteryStats 	account 	0
scalar SASim.node[22].batteryStats 	"energy (mWs)" 	0
scalar SASim.node[22].batteryStats 	"time (s)" 	0
scalar SASim.node[22].batteryStats 	account 	1
scalar SASim.node[22].batteryStats 	"energy (mWs)" 	3638.6232870398
scalar SASim.node[22].batteryStats 	"time (s)" 	59.964128
scalar SASim.node[22].batteryStats 	account 	2
scalar SASim.node[22].batteryStats 	"energy (mWs)" 	2.2563488
scalar SASim.node[22].batteryStats 	"time (s)" 	0.035872
scalar SASim.node[22].batteryStats 	account 	3
scalar SASim.node[22].batteryStats 	"energy (mWs)" 	0
scalar SASim.node[22].batteryStats 	"time (s)" 	0
scalar SASim.node[22].batteryStats 	account 	4
scalar SASim.node[22].batteryStats 	"energy (mWs)" 	0
scalar SASim.node[22].batteryStats 	"time (s)" 	0
scalar SASim.node[23].nic.mac 	ACK_count 	59
scalar SASim.node[23].nic.mac 	channelSwitching_count 	1526
scalar SASim.node[23].nic.mac 	"Total number of packets sent" 	59
scalar SASim.node[23].nic.phy 	nbFramesWithInterference 	197
scalar SASim.node[23].nic.phy 	nbFramesWithoutInterference 	4634
scalar SASim.node[23].nic.phy 	nbFramesWithInterferencePartial 	0
scalar SASim.node[23].nic.phy 	nbFramesWithoutInterferencePartial 	0
scalar SASim.node[23].nic.phy 	nbFramesWithInterferenceDropped 	131
scalar SASim.node[23].nic.phy 	nbFramesWithoutInterferenceDropped 	0
scalar SASim.node[23].appl 	"Total simulation time " 	60
scalar SASim.node[23].appl 	"Total number of generated packets " 	60
scalar SASim.node[23].batteryStats 	nominal 	13320000
attr unit  mW-s
scalar SASim.node[23].batteryStats 	total 	3641.6292810999
attr unit  mW-s
scalar SASim.node[23].batteryStats 	lifetime 	-1
attr unit  s
scalar SASim.node[23].batteryStats 	"Mean power consumption" 	60.693821351665
attr unit  mW
scalar SASim.node[23].batteryStats 	"num devices" 	1
scalar SASim.node[23].batteryStats 	"physical layer" 	0
scalar SASim.node[23].batteryStats 	"device total (mWs)" 	3641.6292854398
scalar SASim.node[23].batteryStats 	account 	0
scalar SASim.node[23].batteryStats 	"energy (mWs)" 	0
scalar SASim.node[23].batteryStats 	"time (s)" 	0
scalar SASim.node[23].batteryStats 	account 	1
scalar SASim.node[23].batteryStats 	"energy (mWs)" 	3618.1328646398
scalar SASim.node[23].batteryStats 	"time (s)" 	59.626448
scalar SASim.node[23].batteryStats 	account 	2
scalar SASim.node[23].batteryStats 	"energy (mWs)" 	23.4964208
scalar SASim.node[23].batteryStats 	"time (s)" 	0.373552
scalar SASim.node[23].batteryStats 	account 	3
scalar SASim.node[23].batteryStats 	"energy (mWs)" 	0
scalar SASim.node[23].batteryStats 	"time (s)" 	0
scalar SASim.node[23].batteryStats 	account 	4
scalar SASim.node[23].batteryStats 	"energy (mWs)" 	0
scalar SASim.node[23].batteryStats 	"time (s)" 	0
scalar SASim.node[24].nic.mac 	ACK_count 	0
scalar SASim.node[24].nic.mac 	channelSwitching_count 	0
scalar SASim.node[24].nic.mac 	"Total number of packets sent" 	0
scalar SASim.node[24].nic.phy 	nbFramesWithInterference 	240
scalar SASim.node[24].nic.phy 	nbFramesWithoutInterference 	4938
scalar SASim.node[24].nic.phy 	nbFramesWithInterferencePartial 	0
scalar SASim.node[24].nic.phy 	nbFramesWithoutInterferencePartial 	0
scalar SASim.node[24].nic.phy 	nbFramesWithInterferenceDropped 	182
scalar SASim.node[24].nic.phy 	nbFramesWithoutInterferenceDropped 	0
scalar SASim.node[24].appl 	"Total simulation time " 	60
scalar SASim.node[24].appl 	"Total number of generated packets " 	0
scalar SASim.node[24].batteryStats 	nominal 	13320000
attr unit  mW-s
scalar SASim.node[24].batteryStats 	total 	3640.879631497
attr unit  mW-s
scalar SASim.node[24].batteryStats 	lifetime 	-1
attr unit  s
scalar SASim.node[24].batteryStats 	"Mean power consumption" 	60.681327191616
attr unit  mW
scalar SASim.node[24].batteryStats 	"num devices" 	1
scalar SASim.node[24].batteryStats 	"physical layer" 	0
scalar SASim.node[24].batteryStats 	"device total (mWs)" 	3640.8796358398
scalar SASim.node[24].batteryStats 	account 	0
scalar SASim.node[24].batteryStats 	"energy (mWs)" 	0
scalar SASim.node[24].batteryStats 	"time (s)" 	0
scalar SASim.node[24].batteryStats 	account 	1
scalar SASim.node[24].batteryStats 	"energy (mWs)" 	3638.6232870398
scalar SASim.node[24].batteryStats 	"time (s)" 	59.964128
scalar SASim.node[24].batteryStats 	account 	2
scalar SASim.node[24].batteryStats 	"energy (mWs)" 	2.2563488
scalar SASim.node[24].batteryStats 	"time (s)" 	0.035872
scalar SASim.node[24].batteryStats 	account 	3
scalar SASim.node[24].batteryStats 	"energy (mWs)" 	0
scalar SASim.node[24].batteryStats 	"time (s)" 	0
scalar SASim.node[24].batteryStats 	account 	4
scalar SASim.node[24].batteryStats 	"energy (mWs)" 	0
scalar SASim.node[24].batteryStats 	"time (s)" 	0
scalar SASim.node[25].nic.mac 	ACK_count 	59
scalar SASim.node[25].nic.mac 	channelSwitching_count 	1621
scalar SASim.node[25].nic.mac 	"Total number of packets sent" 	59
scalar SASim.node[25].nic.phy 	nbFramesWithInterference 	245
scalar SASim.node[25].nic.phy 	nbFramesWithoutInterference 	4941
scalar SASim.node[25].nic.phy 	nbFramesWithInterferencePartial 	0
scalar SASim.node[25].nic.phy 	nbFramesWithoutInterferencePartial 	0
scalar SASim.node[25].nic.phy 	nbFramesWithInterferenceDropped 	110
scalar SASim.node[25].nic.phy 	nbFramesWithoutInterferenceDropped 	0
scalar SASim.node[25].appl 	"Total simulation time " 	60
scalar SASim.node[25].appl 	"Total number of generated packets " 	60
scalar SASim.node[25].batteryStats 	nominal 	13320000
attr unit  mW-s
scalar SASim.node[25].batteryStats 	total 	3641.6191221718
attr unit  mW-s
scalar SASim.node[25].batteryStats 	lifetime 	-1
attr unit  s
scalar SASim.node[25].batteryStats 	"Mean power consumption" 	60.693652036196
attr unit  mW
scalar SASim.node[25].batteryStats 	"num devices" 	1
scalar SASim.node[25].batteryStats 	"physical layer" 	0
scalar SASim.node[25].batteryStats 	"device total (mWs)" 	3641.6191267198
scalar SASim.node[25].batteryStats 	account 	0
scalar SASim.node[25].batteryStats 	"energy (mWs)" 	0
scalar SASim.node[25].batteryStats 	"time (s)" 	0
scalar SASim.node[25].batteryStats 	account 	1
scalar SASim.node[25].batteryStats 	"energy (mWs)" 	3618.4105363198
scalar SASim.node[25].batteryStats 	"time (s)" 	59.631024
scalar SASim.node[25].batteryStats 	account 	2
scalar SASim.node[25].batteryStats 	"energy (mWs)" 	23.2085904
scalar SASim.node[25].batteryStats 	"time (s)" 	0.368976
scalar SASim.node[25].batteryStats 	account 	3
scalar SASim.node[25].batteryStats 	"energy (mWs)" 	0
scalar SASim.node[25].batteryStats 	"time (s)" 	0
scalar SASim.node[25].batteryStats 	account 	4
scalar SASim.node[25].batteryStats 	"energy (mWs)" 	0
scalar SASim.node[25].batteryStats 	"time (s)" 	0
scalar SASim.node[26].nic.mac 	ACK_count 	0
scalar SASim.node[26].nic.mac 	channelSwitching_count 	0
scalar SASim.node[26].nic.mac 	"Total number of packets sent" 	0
scalar SASim.node[26].nic.phy 	nbFramesWithInterference 	227
scalar SASim.node[26].nic.phy 	nbFramesWithoutInterference 	4900
scalar SASim.node[26].nic.phy 	nbFramesWithInterferencePartial 	0
scalar SASim.node[26].nic.phy 	nbFramesWithoutInterferencePartial 	0
scalar SASim.node[26].nic.phy 	nbFramesWithInterferenceDropped 	193
scalar SASim.node[26].nic.phy 	nbFramesWithoutInterferenceDropped 	0
scalar SASim.node[26].appl 	"Total simulation time " 	60
scalar SASim.node[26].appl 	"Total number of generated packets " 	0
scalar SASim.node[26].batteryStats 	nominal 	13320000
attr unit  mW-s
scalar SASim.node[26].batteryStats 	total 	3640.878281774
attr unit  mW-s
scalar SASim.node[26].batteryStats 	lifetime 	-1
attr unit  s
scalar SASim.node[26].batteryStats 	"Mean power consumption" 	60.681304696233
attr unit  mW
scalar SASim.node[26].batteryStats 	"num devices" 	1
scalar SASim.node[26].batteryStats 	"physical layer" 	0
scalar SASim.node[26].batteryStats 	"device total (mWs)" 	3640.8782860798
scalar SASim.node[26].batteryStats 	account 	0
scalar SASim.node[26].batteryStats 	"energy (mWs)" 	0
scalar SASim.node[26].batteryStats 	"time (s)" 	0
scalar SASim.node[26].batteryStats 	account 	1
scalar SASim.node[26].batteryStats 	"energy (mWs)" 	3638.6601804798
scalar SASim.node[26].batteryStats 	"time (s)" 	59.964736
scalar SASim.node[26].batteryStats 	account 	2
scalar SASim.node[26].batteryStats 	"energy (mWs)" 	2.2181056
scalar SASim.node[26].batteryStats 	"time (s)" 	0.035264
scalar SASim.node[26].batteryStats 	account 	3
scalar SASim.node[26].batteryStats 	"energy (mWs)" 	0
scalar SASim.node[26].batteryStats 	"time (s)" 	0
scalar SASim.node[26].batteryStats 	account 	4
scalar SASim.node[26].batteryStats 	"energy (mWs)" 	0
scalar SASim.node[26].batteryStats 	"time (s)" 	0
scalar SASim.node[27].nic.mac 	ACK_count 	58
scalar SASim.node[27].nic.mac 	channelSwitching_count 	1606
scalar SASim.node[27].nic.mac 	"Total number of packets sent" 	58
scalar SASim.node[27].nic.phy 	nbFramesWithInterference 	251
scalar SASim.node[27].nic.phy 	nbFramesWithoutInterference 	4904
scalar SASim.node[27].nic.phy 	nbFramesWithInterferencePartial 	0
scalar SASim.node[27].nic.phy 	nbFramesWithoutInterferencePartial 	0
scalar SASim.node[27].nic.phy 	nbFramesWithInterferenceDropped 	96
scalar SASim.node[27].nic.phy 	nbFramesWithoutInterferenceDropped 	0
scalar SASim.node[27].appl 	"Total simulation time " 	60
scalar SASim.node[27].appl 	"Total number of generated packets " 	60
scalar SASim.node[27].batteryStats 	nominal 	13320000
attr unit  mW-s
scalar SASim.node[27].batteryStats 	total 	3641.6146821994
attr unit  mW-s
scalar SASim.node[27].batteryStats 	lifetime 	-1
attr unit  s
scalar SASim.node[27].batteryStats 	"Mean power consumption" 	60.693578036657
attr unit  mW
scalar SASim.node[27].batteryStats 	"num devices" 	1
scalar SASim.node[27].batteryStats 	"physical layer" 	0
scalar SASim.node[27].batteryStats 	"device total (mWs)" 	3641.6146867198
scalar SASim.node[27].batteryStats 	account 	0
scalar SASim.node[27].batteryStats 	"energy (mWs)" 	0
scalar SASim.node[27].batteryStats 	"time (s)" 	0
scalar SASim.node[27].batteryStats 	account 	1
scalar SASim.node[27].batteryStats 	"energy (mWs)" 	3618.5318963198
scalar SASim.node[27].batteryStats 	"time (s)" 	59.633024
scalar SASim.node[27].batteryStats 	account 	2
scalar SASim.node[27].batteryStats 	"energy (mWs)" 	23.0827904
scalar SASim.node[27].batteryStats 	"time (s)" 	0.366976
scalar SASim.node[27].batteryStats 	account 	3
scalar SASim.node[27].batteryStats 	"energy (mWs)" 	0
scalar SASim.node[27].batteryStats 	"time (s)" 	0
scalar SASim.node[27].batteryStats 	account 	4
scalar SASim.node[27].batteryStats 	"energy (mWs)" 	0
scalar SASim.node[27].batteryStats 	"time (s)" 	0
scalar SASim.node[28].nic.mac 	ACK_count 	0
scalar SASim.node[28].nic.mac 	channelSwitching_count 	0
scalar SASim.node[28].nic.mac 	"Total number of packets sent" 	0
scalar SASim.node[28].nic.phy 	nbFramesWithInterference 	228
scalar SASim.node[28].nic.phy 	nbFramesWithoutInterference 	4949
scalar SASim.node[28].nic.phy 	nbFramesWithInterferencePartial 	0
scalar SASim.node[28].nic.phy 	nbFramesWithoutInterferencePartial 	0
scalar SASim.node[28].nic.phy 	nbFramesWithInterferenceDropped 	185
scalar SASim.node[28].nic.phy 	nbFramesWithoutInterferenceDropped 	0
scalar SASim.node[28].appl 	"Total simulation time " 	60
scalar SASim.node[28].appl 	"Total number of generated packets " 	0
scalar SASim.node[28].batteryStats 	nominal 	13320000
attr unit  mW-s
scalar SASim.node[28].batteryStats 	total 	3640.8809812181
attr unit  mW-s
scalar SASim.node[28].batteryStats 	lifetime 	-1
attr unit  s
scalar SASim.node[28].batteryStats 	"Mean power consumption" 	60.681349686968
attr unit  mW
scalar SASim.node[28].batteryStats 	"num devices" 	1
scalar SASim.node[28].batteryStats 	"physical layer" 	0
scalar SASim.node[28].batteryStats 	"device total (mWs)" 	3640.8809855998
scalar SASim.node[28].batteryStats 	account 	0
scalar SASim.node[28].batteryStats 	"energy (mWs)" 	0
scalar SASim.node[28].batteryStats 	"time (s)" 	0
scalar SASim.node[28].batteryStats 	account 	1
scalar SASim.node[28].batteryStats 	"energy (mWs)" 	3638.5863935998
scalar SASim.node[28].batteryStats 	"time (s)" 	59.96352
scalar SASim.node[28].batteryStats 	account 	2
scalar SASim.node[28].batteryStats 	"energy (mWs)" 	2.294592
scalar SASim.node[28].batteryStats 	"time (s)" 	0.03648
scalar SASim.node[28].batteryStats 	account 	3
scalar SASim.node[28].batteryStats 	"energy (mWs)" 	0
scalar SASim.node[28].batteryStats 	"time (s)" 	0
scalar SASim.node[28].batteryStats 	account 	4
scalar SASim.node[28].batteryStats 	"energy (mWs)" 	0
scalar SASim.node[28].batteryStats 	"time (s)" 	0
scalar SASim.node[29].nic.mac 	ACK_count 	60
scalar SASim.node[29].nic.mac 	channelSwitching_count 	1630
scalar SASim.node[29].nic.mac 	"Total number of packets sent" 	60
scalar SASim.node[29].nic.phy 	nbFramesWithInterference 	228
scalar SASim.node[29].nic.phy 	nbFramesWithoutInterference 	4958
scalar SASim.node[29].nic.phy 	nbFramesWithInterferencePartial 	0
scalar SASim.node[29].nic.phy 	nbFramesWithoutInterferencePartial 	0
scalar SASim.node[29].nic.phy 	nbFramesWithInterferenceDropped 	113
scalar SASim.node[29].nic.phy 	nbFramesWithoutInterferenceDropped 	0
scalar SASim.node[29].appl 	"Total simulation time " 	60
scalar SASim.node[29].appl 	"Total number of generated packets " 	60
scalar SASim.node[29].batteryStats 	nominal 	13320000
attr unit  mW-s
scalar SASim.node[29].batteryStats 	total 	3641.634502288
attr unit  mW-s
scalar SASim.node[29].batteryStats 	lifetime 	-1
attr unit  s
scalar SASim.node[29].batteryStats 	"Mean power consumption" 	60.693908371466
attr unit  mW
scalar SASim.node[29].batteryStats 	"num devices" 	1
scalar SASim.node[29].batteryStats 	"physical layer" 	0
scalar SASim.node[29].batteryStats 	"device total (mWs)" 	3641.6345068798
scalar SASim.node[29].batteryStats 	account 	0
scalar SASim.node[29].batteryStats 	"energy (mWs)" 	0
scalar SASim.node[29].batteryStats 	"time (s)" 	0
scalar SASim.node[29].batteryStats 	account 	1
scalar SASim.node[29].batteryStats 	"energy (mWs)" 	3617.9901452798
scalar SASim.node[29].batteryStats 	"time (s)" 	59.624096
scalar SASim.node[29].batteryStats 	account 	2
scalar SASim.node[29].batteryStats 	"energy (mWs)" 	23.6443616
scalar SASim.node[29].batteryStats 	"time (s)" 	0.375904
scalar SASim.node[29].batteryStats 	account 	3
scalar SASim.node[29].batteryStats 	"energy (mWs)" 	0
scalar SASim.node[29].batteryStats 	"time (s)" 	0
scalar SASim.node[29].batteryStats 	account 	4
scalar SASim.node[29].batteryStats 	"energy (mWs)" 	0
scalar SASim.node[29].batteryStats 	"time (s)" 	0
scalar SASim.node[30].nic.mac 	ACK_count 	0
scalar SASim.node[30].nic.mac 	channelSwitching_count 	0
scalar SASim.node[30].nic.mac 	"Total number of packets sent" 	0
scalar SASim.node[30].nic.phy 	nbFramesWithInterference 	242
scalar SASim.node[30].nic.phy 	nbFramesWithoutInterference 	5145
scalar SASim.node[30].nic.phy 	nbFramesWithInterferencePartial 	0
scalar SASim.node[30].nic.phy 	nbFramesWithoutInterferencePartial 	0
scalar SASim.node[30].nic.phy 	nbFramesWithInterferenceDropped 	198
scalar SASim.node[30].nic.phy 	nbFramesWithoutInterferenceDropped 	0
scalar SASim.node[30].appl 	"Total simulation time " 	60
scalar SASim.node[30].appl 	"Total number of generated packets " 	0
scalar SASim.node[30].batteryStats 	nominal 	13320000
attr unit  mW-s
scalar SASim.node[30].batteryStats 	total 	3640.8796313107
attr unit  mW-s
scalar SASim.node[30].batteryStats 	lifetime 	-1
attr unit  s
scalar SASim.node[30].batteryStats 	"Mean power consumption" 	60.681327188512
attr unit  mW
scalar SASim.node[30].batteryStats 	"num devices" 	1
scalar SASim.node[30].batteryStats 	"physical layer" 	0
scalar SASim.node[30].batteryStats 	"device total (mWs)" 	3640.8796358398
scalar SASim.node[30].batteryStats 	account 	0
scalar SASim.node[30].batteryStats 	"energy (mWs)" 	0
scalar SASim.node[30].batteryStats 	"time (s)" 	0
scalar SASim.node[30].batteryStats 	account 	1
scalar SASim.node[30].batteryStats 	"energy (mWs)" 	3638.6232870398
scalar SASim.node[30].batteryStats 	"time (s)" 	59.964128
scalar SASim.node[30].batteryStats 	account 	2
scalar SASim.node[30].batteryStats 	"energy (mWs)" 	2.2563488
scalar SASim.node[30].batteryStats 	"time (s)" 	0.035872
scalar SASim.node[30].batteryStats 	account 	3
scalar SASim.node[30].batteryStats 	"energy (mWs)" 	0
scalar SASim.node[30].batteryStats 	"time (s)" 	0
scalar SASim.node[30].batteryStats 	account 	4
scalar SASim.node[30].batteryStats 	"energy (mWs)" 	0
scalar SASim.node[30].batteryStats 	"time (s)" 	0
scalar SASim.node[31].nic.mac 	ACK_count 	59
scalar SASim.node[31].nic.mac 	channelSwitching_count 	1681
scalar SASim.node[31].nic.mac 	"Total number of packets sent" 	59
scalar SASim.node[31].nic.phy 	nbFramesWithInterference 	242
scalar SASim.node[31].nic.phy 	nbFramesWithoutInterference 	5147
scalar SASim.node[31].nic.phy 	nbFramesWithInterferencePartial 	0
scalar SASim.node[31].nic.phy 	nbFramesWithoutInterferencePartial 	0
scalar SASim.node[31].nic.phy 	nbFramesWithInterferenceDropped 	127
scalar SASim.node[31].nic.phy 	nbFramesWithoutInterferenceDropped 	0
scalar SASim.node[31].appl 	"Total simulation time " 	60
scalar SASim.node[31].appl 	"Total number of generated packets " 	60
scalar SASim.node[31].batteryStats 	nominal 	13320000
attr unit  mW-s
scalar SASim.node[31].batteryStats 	total 	3641.6230291817
attr unit  mW-s
scalar SASim.node[31].batteryStats 	lifetime 	-1
attr unit  s
scalar SASim.node[31].batteryStats 	"Mean power consumption" 	60.693717153029
attr unit  mW
scalar SASim.node[31].batteryStats 	"num devices" 	1
scalar SASim.node[31].batteryStats 	"physical layer" 	0
scalar SASim.node[31].batteryStats 	"device total (mWs)" 	3641.6230339198
scalar SASim.node[31].batteryStats 	account 	0
scalar SASim.node[31].batteryStats 	"energy (mWs)" 	0
scalar SASim.node[31].batteryStats 	"time (s)" 	0
scalar SASim.node[31].batteryStats 	account 	1
scalar SASim.node[31].batteryStats 	"energy (mWs)" 	3618.3037395198
scalar SASim.node[31].batteryStats 	"time (s)" 	59.629264
scalar SASim.node[31].batteryStats 	account 	2
scalar SASim.node[31].batteryStats 	"energy (mWs)" 	23.3192944
scalar SASim.node[31].batteryStats 	"time (s)" 	0.370736
scalar SASim.node[31].batteryStats 	account 	3
scalar SASim.node[31].batteryStats 	"energy (mWs)" 	0
scalar SASim.node[31].batteryStats 	"time (s)" 	0
scalar SASim.node[31].batteryStats 	account 	4
scalar SASim.node[31].batteryStats 	"energy (mWs)" 	0
scalar SASim.node[31].batteryStats 	"time (s)" 	0
scalar SASim.node[32].nic.mac 	ACK_count 	0
scalar SASim.node[32].nic.mac 	channelSwitching_count 	0
scalar SASim.node[32].nic.mac 	"Total number of packets sent" 	0
scalar SASim.node[32].nic.phy 	nbFramesWithInterference 	229
scalar SASim.node[32].nic.phy 	nbFramesWithoutInterference 	5188
scalar SASim.node[32].nic.phy 	nbFramesWithInterferencePartial 	0
scalar SASim.node[32].nic.phy 	nbFramesWithoutInterferencePartial 	0
scalar SASim.node[32].nic.phy 	nbFramesWithInterferenceDropped 	190
scalar SASim.node[32].nic.phy 	nbFramesWithoutInterferenceDropped 	0
scalar SASim.node[32].appl 	"Total simulation time " 	60
scalar SASim.node[32].appl 	"Total number of generated packets " 	0
scalar SASim.node[32].batteryStats 	nominal 	13320000
attr unit  mW-s
scalar SASim.node[32].batteryStats 	total 	3640.8809810113
attr unit  mW-s
scalar SASim.node[32].batteryStats 	lifetime 	-1
attr unit  s
scalar SASim.node[32].batteryStats 	"Mean power consumption" 	60.681349683522
attr unit  mW
scalar SASim.node[32].batteryStats 	"num devices" 	1
scalar SASim.node[32].batteryStats 	"physical layer" 	0
scalar SASim.node[32].batteryStats 	"device total (mWs)" 	3640.8809855998
scalar SASim.node[32].batteryStats 	account 	0
scalar SASim.node[32].batteryStats 	"energy (mWs)" 	0
scalar SASim.node[32].batteryStats 	"time (s)" 	0
scalar SASim.node[32].batteryStats 	account 	1
scalar SASim.node[32].batteryStats 	"energy (mWs)" 	3638.5863935998
scalar SASim.node[32].batteryStats 	"time (s)" 	59.96352
scalar SASim.node[32].batteryStats 	account 	2
scalar SASim.node[32].batteryStats 	"energy (mWs)" 	2.294592
scalar SASim.node[32].batteryStats 	"time (s)" 	0.03648
scalar SASim.node[32].batteryStats 	account 	3
scalar SASim.node[32].batteryStats 	"energy (mWs)" 	0
scalar SASim.node[32].batteryStats 	"time (s)" 	0
scalar SASim.node[32].batteryStats 	account 	4
scalar SASim.node[32].batteryStats 	"energy (mWs)" 	0
scalar SASim.node[32].batteryStats 	"time (s)" 	0
scalar SASim.node[33].nic.mac 	ACK_count 	60
scalar SASim.node[33].nic.mac 	channelSwitching_count 	1706
scalar SASim.node[33].nic.mac 	"Total number of packets sent" 	60
scalar SASim.node[33].nic.phy 	nbFramesWithInterference 	204
scalar SASim.node[33].nic.phy 	nbFramesWithoutInterference 	5189
scalar SASim.node[33].nic.phy 	nbFramesWithInterferencePartial 	0
scalar SASim.node[33].nic.phy 	nbFramesWithoutInterferencePartial 	0
scalar SASim.node[33].nic.phy 	nbFramesWithInterferenceDropped 	149
scalar SASim.node[33].nic.phy 	nbFramesWithoutInterferenceDropped 	0
scalar SASim.node[33].appl 	"Total simulation time " 	60
scalar SASim.node[33].appl 	"Total number of generated packets " 	60
scalar SASim.node[33].batteryStats 	nominal 	13320000
attr unit  mW-s
scalar SASim.node[33].batteryStats 	total 	3641.6290320065
attr unit  mW-s
scalar SASim.node[33].batteryStats 	lifetime 	-1
attr unit  s
scalar SASim.node[33].batteryStats 	"Mean power consumption" 	60.693817200108
attr unit  mW
scalar SASim.node[33].batteryStats 	"num devices" 	1
scalar SASim.node[33].batteryStats 	"physical layer" 	0
scalar SASim.node[33].batteryStats 	"device total (mWs)" 	3641.6290367998
scalar SASim.node[33].batteryStats 	account 	0
scalar SASim.node[33].batteryStats 	"energy (mWs)" 	0
scalar SASim.node[33].batteryStats 	"time (s)" 	0
scalar SASim.node[33].batteryStats 	account 	1
scalar SASim.node[33].batteryStats 	"energy (mWs)" 	3618.1396607998
scalar SASim.node[33].batteryStats 	"time (s)" 	59.62656
scalar SASim.node[33].batteryStats 	account 	2
scalar SASim.node[33].batteryStats 	"energy (mWs)" 	23.489376
scalar SASim.node[33].batteryStats 	"time (s)" 	0.37344
scalar SASim.node[33].batteryStats 	account 	3
scalar SASim.node[33].batteryStats 	"energy (mWs)" 	0
scalar SASim.node[33].batteryStats 	"time (s)" 	0
scalar SASim.node[33].batteryStats 	account 	4
scalar SASim.node[33].batteryStats 	"energy (mWs)" 	0
scalar SASim.node[33].batteryStats 	"time (s)" 	0
scalar SASim.node[34].nic.mac 	ACK_count 	0
scalar SASim.node[34].nic.mac 	channelSwitching_count 	0
scalar SASim.node[34].nic.mac 	"Total number of packets sent" 	0
scalar SASim.node[34].nic.phy 	nbFramesWithInterference 	243
scalar SASim.node[34].nic.phy 	nbFramesWithoutInterference 	4930
scalar SASim.node[34].nic.phy 	nbFramesWithInterferencePartial 	0
scalar SASim.node[34].nic.phy 	nbFramesWithoutInterferencePartial 	0
scalar SASim.node[34].nic.phy 	nbFramesWithInterferenceDropped 	189
scalar SASim.node[34].nic.phy 	nbFramesWithoutInterferenceDropped 	0
scalar SASim.node[34].appl 	"Total simulation time " 	60
scalar SASim.node[34].appl 	"Total number of generated packets " 	0
scalar SASim.node[34].batteryStats 	nominal 	13320000
attr unit  mW-s
scalar SASim.node[34].batteryStats 	total 	3640.8782817014
attr unit  mW-s
scalar SASim.node[34].batteryStats 	lifetime 	-1
attr unit  s
scalar SASim.node[34].batteryStats 	"Mean power consumption" 	60.681304695023
attr unit  mW
scalar SASim.node[34].batteryStats 	"num devices" 	1
scalar SASim.node[34].batteryStats 	"physical layer" 	0
scalar SASim.node[34].batteryStats 	"device total (mWs)" 	3640.8782860798
scalar SASim.node[34].batteryStats 	account 	0
scalar SASim.node[34].batteryStats 	"energy (mWs)" 	0
scalar SASim.node[34].batteryStats 	"time (s)" 	0
scalar SASim.node[34].batteryStats 	account 	1
scalar SASim.node[34].batteryStats 	"energy (mWs)" 	3638.6601804798
scalar SASim.node[34].batteryStats 	"time (s)" 	59.964736
scalar SASim.node[34].batteryStats 	account 	2
scalar SASim.node[34].batteryStats 	"energy (mWs)" 	2.2181056
scalar SASim.node[34].batteryStats 	"time (s)" 	0.035264
scalar SASim.node[34].batteryStats 	account 	3
scalar SASim.node[34].batteryStats 	"energy (mWs)" 	0
scalar SASim.node[34].batteryStats 	"time (s)" 	0
scalar SASim.node[34].batteryStats 	account 	4
scalar SASim.node[34].batteryStats 	"energy (mWs)" 	0
scalar SASim.node[34].batteryStats 	"time (s)" 	0
scalar SASim.node[35].nic.mac 	ACK_count 	58
scalar SASim.node[35].nic.mac 	channelSwitching_count 	1626
scalar SASim.node[35].nic.mac 	"Total number of packets sent" 	58
scalar SASim.node[35].nic.phy 	nbFramesWithInterference 	225
scalar SASim.node[35].nic.phy 	nbFramesWithoutInterference 	4927
scalar SASim.node[35].nic.phy 	nbFramesWithInterferencePartial 	0
scalar SASim.node[35].nic.phy 	nbFramesWithoutInterferencePartial 	0
scalar SASim.node[35].nic.phy 	nbFramesWithInterferenceDropped 	133
scalar SASim.node[35].nic.phy 	nbFramesWithoutInterferenceDropped 	1
scalar SASim.node[35].appl 	"Total simulation time " 	60
scalar SASim.node[35].appl 	"Total number of generated packets " 	60
scalar SASim.node[35].batteryStats 	nominal 	13320000
attr unit  mW-s
scalar SASim.node[35].batteryStats 	total 	3641.6123378128
attr unit  mW-s
scalar SASim.node[35].batteryStats 	lifetime 	-1
attr unit  s
scalar SASim.node[35].batteryStats 	"Mean power consumption" 	60.693538963546
attr unit  mW
scalar SASim.node[35].batteryStats 	"num devices" 	1
scalar SASim.node[35].batteryStats 	"physical layer" 	0
scalar SASim.node[35].batteryStats 	"device total (mWs)" 	3641.6123423998
scalar SASim.node[35].batteryStats 	account 	0
scalar SASim.node[35].batteryStats 	"energy (mWs)" 	0
scalar SASim.node[35].batteryStats 	"time (s)" 	0
scalar SASim.node[35].batteryStats 	account 	1
scalar SASim.node[35].batteryStats 	"energy (mWs)" 	3618.5959743998
scalar SASim.node[35].batteryStats 	"time (s)" 	59.63408
scalar SASim.node[35].batteryStats 	account 	2
scalar SASim.node[35].batteryStats 	"energy (mWs)" 	23.016368
scalar SASim.node[35].batteryStats 	"time (s)" 	0.36592
scalar SASim.node[35].batteryStats 	account 	3
scalar SASim.node[35].batteryStats 	"energy (mWs)" 	0
scalar SASim.node[35].batteryStats 	"time (s)" 	0
scalar SASim.node[35].batteryStats 	account 	4
scalar SASim.node[35].batteryStats 	"energy (mWs)" 	0
scalar SASim.node[35].batteryStats 	"time (s)" 	0
scalar SASim.node[36].nic.mac 	ACK_count 	0
scalar SASim.node[36].nic.mac 	channelSwitching_count 	0
scalar SASim.node[36].nic.mac 	"Total number of packets sent" 	0
scalar SASim.node[36].nic.phy 	nbFramesWithInterference 	230
scalar SASim.node[36].nic.phy 	nbFramesWithoutInterference 	5133
scalar SASim.node[36].nic.phy 	nbFramesWithInterferencePartial 	0
scalar SASim.node[36].nic.phy 	nbFramesWithoutInterferencePartial 	0
scalar SASim.node[36].nic.phy 	nbFramesWithInterferenceDropped 	191
scalar SASim.node[36].nic.phy 	nbFramesWithoutInterferenceDropped 	0
scalar SASim.node[36].appl 	"Total simulation time " 	60
scalar SASim.node[36].appl 	"Total number of generated packets " 	0
scalar SASim.node[36].batteryStats 	nominal 	13320000
attr unit  mW-s
scalar SASim.node[36].batteryStats 	total 	3640.8782815672
attr unit  mW-s
scalar SASim.node[36].batteryStats 	lifetime 	-1
attr unit  s
scalar SASim.node[36].batteryStats 	"Mean power consumption" 	60.681304692787
attr unit  mW
scalar SASim.node[36].batteryStats 	"num devices" 	1
scalar SASim.node[36].batteryStats 	"physical layer" 	0
scalar SASim.node[36].batteryStats 	"device total (mWs)" 	3640.8782860798
scalar SASim.node[36].batteryStats 	account 	0
scalar SASim.node[36].batteryStats 	"energy (mWs)" 	0
scalar SASim.node[36].batteryStats 	"time (s)" 	0
scalar SASim.node[36].batteryStats 	account 	1
scalar SASim.node[36].batteryStats 	"energy (mWs)" 	3638.6601804798
scalar SASim.node[36].batteryStats 	"time (s)" 	59.964736
scalar SASim.node[36].batteryStats 	account 	2
scalar SASim.node[36].batteryStats 	"energy (mWs)" 	2.2181056
scalar SASim.node[36].batteryStats 	"time (s)" 	0.035264
scalar SASim.node[36].batteryStats 	account 	3
scalar SASim.node[36].batteryStats 	"energy (mWs)" 	0
scalar SASim.node[36].batteryStats 	"time (s)" 	0
scalar SASim.node[36].batteryStats 	account 	4
scalar SASim.node[36].batteryStats 	"energy (mWs)" 	0
scalar SASim.node[36].batteryStats 	"time (s)" 	0
scalar SASim.node[37].nic.mac 	ACK_count 	58
scalar SASim.node[37].nic.mac 	channelSwitching_count 	1689
scalar SASim.node[37].nic.mac 	"Total number of packets sent" 	58
scalar SASim.node[37].nic.phy 	nbFramesWithInterference 	222
scalar SASim.node[37].nic.phy 	nbFramesWithoutInterference 	5128
scalar SASim.node[37].nic.phy 	nbFramesWithInterferencePartial 	0
scalar SASim.node[37].nic.phy 	nbFramesWithoutInterferencePartial 	0
scalar SASim.node[37].nic.phy 	nbFramesWithInterferenceDropped 	133
scalar SASim.node[37].nic.phy 	nbFramesWithoutInterferenceDropped 	0
scalar SASim.node[37].appl 	"Total simulation time " 	60
scalar SASim.node[37].appl 	"Total number of generated packets " 	60
scalar SASim.node[37].batteryStats 	nominal 	13320000
attr unit  mW-s
scalar SASim.node[37].batteryStats 	total 	3641.6115562394
attr unit  mW-s
scalar SASim.node[37].batteryStats 	lifetime 	-1
attr unit  s
scalar SASim.node[37].batteryStats 	"Mean power consumption" 	60.693525937324
attr unit  mW
scalar SASim.node[37].batteryStats 	"num devices" 	1
scalar SASim.node[37].batteryStats 	"physical layer" 	0
scalar SASim.node[37].batteryStats 	"device total (mWs)" 	3641.6115609598
scalar SASim.node[37].batteryStats 	account 	0
scalar SASim.node[37].batteryStats 	"energy (mWs)" 	0
scalar SASim.node[37].batteryStats 	"time (s)" 	0
scalar SASim.node[37].batteryStats 	account 	1
scalar SASim.node[37].batteryStats 	"energy (mWs)" 	3618.6173337598
scalar SASim.node[37].batteryStats 	"time (s)" 	59.634432
scalar SASim.node[37].batteryStats 	account 	2
scalar SASim.node[37].batteryStats 	"energy (mWs)" 	22.9942272
scalar SASim.node[37].batteryStats 	"time (s)" 	0.365568
scalar SASim.node[37].batteryStats 	account 	3
scalar SASim.node[37].batteryStats 	"energy (mWs)" 	0
scalar SASim.node[37].batteryStats 	"time (s)" 	0
scalar SASim.node[37].batteryStats 	account 	4
scalar SASim.node[37].batteryStats 	"energy (mWs)" 	0
scalar SASim.node[37].batteryStats 	"time (s)" 	0
scalar SASim.node[38].nic.mac 	ACK_count 	0
scalar SASim.node[38].nic.mac 	channelSwitching_count 	0
scalar SASim.node[38].nic.mac 	"Total number of packets sent" 	0
scalar SASim.node[38].nic.phy 	nbFramesWithInterference 	214
scalar SASim.node[38].nic.phy 	nbFramesWithoutInterference 	5009
scalar SASim.node[38].nic.phy 	nbFramesWithInterferencePartial 	0
scalar SASim.node[38].nic.phy 	nbFramesWithoutInterferencePartial 	0
scalar SASim.node[38].nic.phy 	nbFramesWithInterferenceDropped 	202
scalar SASim.node[38].nic.phy 	nbFramesWithoutInterferenceDropped 	0
scalar SASim.node[38].appl 	"Total simulation time " 	60
scalar SASim.node[38].appl 	"Total number of generated packets " 	0
scalar SASim.node[38].batteryStats 	nominal 	13320000
attr unit  mW-s
scalar SASim.node[38].batteryStats 	total 	3640.8796314392
attr unit  mW-s
scalar SASim.node[38].batteryStats 	lifetime 	-1
attr unit  s
scalar SASim.node[38].batteryStats 	"Mean power consumption" 	60.681327190654
attr unit  mW
scalar SASim.node[38].batteryStats 	"num devices" 	1
scalar SASim.node[38].batteryStats 	"physical layer" 	0
scalar SASim.node[38].batteryStats 	"device total (mWs)" 	3640.8796358398
scalar SASim.node[38].batteryStats 	account 	0
scalar SASim.node[38].batteryStats 	"energy (mWs)" 	0
scalar SASim.node[38].batteryStats 	"time (s)" 	0
scalar SASim.node[38].batteryStats 	account 	1
scalar SASim.node[38].batteryStats 	"energy (mWs)" 	3638.6232870398
scalar SASim.node[38].batteryStats 	"time (s)" 	59.964128
scalar SASim.node[38].batteryStats 	account 	2
scalar SASim.node[38].batteryStats 	"energy (mWs)" 	2.2563488
scalar SASim.node[38].batteryStats 	"time (s)" 	0.035872
scalar SASim.node[38].batteryStats 	account 	3
scalar SASim.node[38].batteryStats 	"energy (mWs)" 	0
scalar SASim.node[38].batteryStats 	"time (s)" 	0
scalar SASim.node[38].batteryStats 	account 	4
scalar SASim.node[38].batteryStats 	"energy (mWs)" 	0
scalar SASim.node[38].batteryStats 	"time (s)" 	0
scalar SASim.node[39].nic.mac 	ACK_count 	59
scalar SASim.node[39].nic.mac 	channelSwitching_count 	1648
scalar SASim.node[39].nic.mac 	"Total number of packets sent" 	59
scalar SASim.node[39].nic.phy 	nbFramesWithInterference 	218
scalar SASim.node[39].nic.phy 	nbFramesWithoutInterference 	5016
scalar SASim.node[39].nic.phy 	nbFramesWithInterferencePartial 	0
scalar SASim.node[39].nic.phy 	nbFramesWithoutInterferencePartial 	0
scalar SASim.node[39].nic.phy 	nbFramesWithInterferenceDropped 	127
scalar SASim.node[39].nic.phy 	nbFramesWithoutInterferenceDropped 	0
scalar SASim.node[39].appl 	"Total simulation time " 	60
scalar SASim.node[39].appl 	"Total number of generated packets " 	60
scalar SASim.node[39].batteryStats 	nominal 	13320000
attr unit  mW-s
scalar SASim.node[39].batteryStats 	total 	3641.619122114
attr unit  mW-s
scalar SASim.node[39].batteryStats 	lifetime 	-1
attr unit  s
scalar SASim.node[39].batteryStats 	"Mean power consumption" 	60.693652035234
attr unit  mW
scalar SASim.node[39].batteryStats 	"num devices" 	1
scalar SASim.node[39].batteryStats 	"physical layer" 	0
scalar SASim.node[39].batteryStats 	"device total (mWs)" 	3641.6191267198
scalar SASim.node[39].batteryStats 	account 	0
scalar SASim.node[39].batteryStats 	"energy (mWs)" 	0
scalar SASim.node[39].batteryStats 	"time (s)" 	0
scalar SASim.node[39].batteryStats 	account 	1
scalar SASim.node[39].batteryStats 	"energy (mWs)" 	3618.4105363198
scalar SASim.node[39].batteryStats 	"time (s)" 	59.631024
scalar SASim.node[39].batteryStats 	account 	2
scalar SASim.node[39].batteryStats 	"energy (mWs)" 	23.2085904
scalar SASim.node[39].batteryStats 	"time (s)" 	0.368976
scalar SASim.node[39].batteryStats 	account 	3
scalar SASim.node[39].batteryStats 	"energy (mWs)" 	0
[...]
scalar SASim.node[91].nic.phy 	nbFramesWithoutInterferenceDropped 	0
scalar SASim.node[91].appl 	"Total simulation time " 	60
scalar SASim.node[91].appl 	"Total number of generated packets " 	60
scalar SASim.node[91].batteryStats 	nominal 	13320000
attr unit  mW-s
scalar SASim.node[91].batteryStats 	total 	3641.6011134405
attr unit  mW-s
scalar SASim.node[91].batteryStats 	lifetime 	-1
attr unit  s
scalar SASim.node[91].batteryStats 	"Mean power consumption" 	60.693351890674
attr unit  mW
scalar SASim.node[91].batteryStats 	"num devices" 	1
scalar SASim.node[91].batteryStats 	"physical layer" 	0
scalar SASim.node[91].batteryStats 	"device total (mWs)" 	3641.6011180798
scalar SASim.node[91].batteryStats 	account 	0
scalar SASim.node[91].batteryStats 	"energy (mWs)" 	0
scalar SASim.node[91].batteryStats 	"time (s)" 	0
scalar SASim.node[91].batteryStats 	account 	1
scalar SASim.node[91].batteryStats 	"energy (mWs)" 	3618.9027724798
scalar SASim.node[91].batteryStats 	"time (s)" 	59.639136
scalar SASim.node[91].batteryStats 	account 	2
scalar SASim.node[91].batteryStats 	"energy (mWs)" 	22.6983456
scalar SASim.node[91].batteryStats 	"time (s)" 	0.360864
scalar SASim.node[91].batteryStats 	account 	3
scalar SASim.node[91].batteryStats 	"energy (mWs)" 	0
scalar SASim.node[91].batteryStats 	"time (s)" 	0
scalar SASim.node[91].batteryStats 	account 	4
scalar SASim.node[91].batteryStats 	"energy (mWs)" 	0
scalar SASim.node[91].batteryStats 	"time (s)" 	0
scalar SASim.node[92].nic.mac 	ACK_count 	0
scalar SASim.node[92].nic.mac 	channelSwitching_count 	0
scalar SASim.node[92].nic.mac 	"Total number of packets sent" 	0
scalar SASim.node[92].nic.phy 	nbFramesWithInterference 	221
scalar SASim.node[92].nic.phy 	nbFramesWithoutInterference 	4981
scalar SASim.node[92].nic.phy 	nbFramesWithInterferencePartial 	0
scalar SASim.node[92].nic.phy 	nbFramesWithoutInterferencePartial 	0
scalar SASim.node[92].nic.phy 	nbFramesWithInterferenceDropped 	197
scalar SASim.node[92].nic.phy 	nbFramesWithoutInterferenceDropped 	0
scalar SASim.node[92].appl 	"Total simulation time " 	60
scalar SASim.node[92].appl 	"Total number of generated packets " 	0
scalar SASim.node[92].batteryStats 	nominal 	13320000
attr unit  mW-s
scalar SASim.node[92].batteryStats 	total 	3640.8796314187
attr unit  mW-s
scalar SASim.node[92].batteryStats 	lifetime 	-1
attr unit  s
scalar SASim.node[92].batteryStats 	"Mean power consumption" 	60.681327190312
attr unit  mW
scalar SASim.node[92].batteryStats 	"num devices" 	1
scalar SASim.node[92].batteryStats 	"physical layer" 	0
scalar SASim.node[92].batteryStats 	"device total (mWs)" 	3640.8796358398
scalar SASim.node[92].batteryStats 	account 	0
scalar SASim.node[92].batteryStats 	"energy (mWs)" 	0
scalar SASim.node[92].batteryStats 	"time (s)" 	0
scalar SASim.node[92].batteryStats 	account 	1
scalar SASim.node[92].batteryStats 	"energy (mWs)" 	3638.6232870398
scalar SASim.node[92].batteryStats 	"time (s)" 	59.964128
scalar SASim.node[92].batteryStats 	account 	2
scalar SASim.node[92].batteryStats 	"energy (mWs)" 	2.2563488
scalar SASim.node[92].batteryStats 	"time (s)" 	0.035872
scalar SASim.node[92].batteryStats 	account 	3
scalar SASim.node[92].batteryStats 	"energy (mWs)" 	0
scalar SASim.node[92].batteryStats 	"time (s)" 	0
scalar SASim.node[92].batteryStats 	account 	4
scalar SASim.node[92].batteryStats 	"energy (mWs)" 	0
scalar SASim.node[92].batteryStats 	"time (s)" 	0
scalar SASim.node[93].nic.mac 	ACK_count 	59
scalar SASim.node[93].nic.mac 	channelSwitching_count 	1637
scalar SASim.node[93].nic.mac 	"Total number of packets sent" 	59
scalar SASim.node[93].nic.phy 	nbFramesWithInterference 	223
scalar SASim.node[93].nic.phy 	nbFramesWithoutInterference 	4977
scalar SASim.node[93].nic.phy 	nbFramesWithInterferencePartial 	0
scalar SASim.node[93].nic.phy 	nbFramesWithoutInterferencePartial 	0
scalar SASim.node[93].nic.phy 	nbFramesWithInterferenceDropped 	117
scalar SASim.node[93].nic.phy 	nbFramesWithoutInterferenceDropped 	0
scalar SASim.node[93].appl 	"Total simulation time " 	60
scalar SASim.node[93].appl 	"Total number of generated packets " 	60
scalar SASim.node[93].batteryStats 	nominal 	13320000
attr unit  mW-s
scalar SASim.node[93].batteryStats 	total 	3641.6316251215
attr unit  mW-s
scalar SASim.node[93].batteryStats 	lifetime 	-1
attr unit  s
scalar SASim.node[93].batteryStats 	"Mean power consumption" 	60.693860418691
attr unit  mW
scalar SASim.node[93].batteryStats 	"num devices" 	1
scalar SASim.node[93].batteryStats 	"physical layer" 	0
scalar SASim.node[93].batteryStats 	"device total (mWs)" 	3641.6316297598
scalar SASim.node[93].batteryStats 	account 	0
scalar SASim.node[93].batteryStats 	"energy (mWs)" 	0
scalar SASim.node[93].batteryStats 	"time (s)" 	0
scalar SASim.node[93].batteryStats 	account 	1
scalar SASim.node[93].batteryStats 	"energy (mWs)" 	3618.0687865598
scalar SASim.node[93].batteryStats 	"time (s)" 	59.625392
scalar SASim.node[93].batteryStats 	account 	2
scalar SASim.node[93].batteryStats 	"energy (mWs)" 	23.5628432
scalar SASim.node[93].batteryStats 	"time (s)" 	0.374608
scalar SASim.node[93].batteryStats 	account 	3
scalar SASim.node[93].batteryStats 	"energy (mWs)" 	0
scalar SASim.node[93].batteryStats 	"time (s)" 	0
scalar SASim.node[93].batteryStats 	account 	4
scalar SASim.node[93].batteryStats 	"energy (mWs)" 	0
scalar SASim.node[93].batteryStats 	"time (s)" 	0
scalar SASim.node[94].nic.mac 	ACK_count 	0
scalar SASim.node[94].nic.mac 	channelSwitching_count 	0
scalar SASim.node[94].nic.mac 	"Total number of packets sent" 	0
scalar SASim.node[94].nic.phy 	nbFramesWithInterference 	232
scalar SASim.node[94].nic.phy 	nbFramesWithoutInterference 	5005
scalar SASim.node[94].nic.phy 	nbFramesWithInterferencePartial 	0
scalar SASim.node[94].nic.phy 	nbFramesWithoutInterferencePartial 	0
scalar SASim.node[94].nic.phy 	nbFramesWithInterferenceDropped 	191
scalar SASim.node[94].nic.phy 	nbFramesWithoutInterferenceDropped 	0
scalar SASim.node[94].appl 	"Total simulation time " 	60
scalar SASim.node[94].appl 	"Total number of generated packets " 	0
scalar SASim.node[94].batteryStats 	nominal 	13320000
attr unit  mW-s
scalar SASim.node[94].batteryStats 	total 	3640.8796314131
attr unit  mW-s
scalar SASim.node[94].batteryStats 	lifetime 	-1
attr unit  s
scalar SASim.node[94].batteryStats 	"Mean power consumption" 	60.681327190219
attr unit  mW
scalar SASim.node[94].batteryStats 	"num devices" 	1
scalar SASim.node[94].batteryStats 	"physical layer" 	0
scalar SASim.node[94].batteryStats 	"device total (mWs)" 	3640.8796358398
scalar SASim.node[94].batteryStats 	account 	0
scalar SASim.node[94].batteryStats 	"energy (mWs)" 	0
scalar SASim.node[94].batteryStats 	"time (s)" 	0
scalar SASim.node[94].batteryStats 	account 	1
scalar SASim.node[94].batteryStats 	"energy (mWs)" 	3638.6232870398
scalar SASim.node[94].batteryStats 	"time (s)" 	59.964128
scalar SASim.node[94].batteryStats 	account 	2
scalar SASim.node[94].batteryStats 	"energy (mWs)" 	2.2563488
scalar SASim.node[94].batteryStats 	"time (s)" 	0.035872
scalar SASim.node[94].batteryStats 	account 	3
scalar SASim.node[94].batteryStats 	"energy (mWs)" 	0
scalar SASim.node[94].batteryStats 	"time (s)" 	0
scalar SASim.node[94].batteryStats 	account 	4
scalar SASim.node[94].batteryStats 	"energy (mWs)" 	0
scalar SASim.node[94].batteryStats 	"time (s)" 	0
scalar SASim.node[95].nic.mac 	ACK_count 	59
scalar SASim.node[95].nic.mac 	channelSwitching_count 	1644
scalar SASim.node[95].nic.mac 	"Total number of packets sent" 	59
scalar SASim.node[95].nic.phy 	nbFramesWithInterference 	227
scalar SASim.node[95].nic.phy 	nbFramesWithoutInterference 	5008
scalar SASim.node[95].nic.phy 	nbFramesWithInterferencePartial 	0
scalar SASim.node[95].nic.phy 	nbFramesWithoutInterferencePartial 	0
scalar SASim.node[95].nic.phy 	nbFramesWithInterferenceDropped 	124
scalar SASim.node[95].nic.phy 	nbFramesWithoutInterferenceDropped 	0
scalar SASim.node[95].appl 	"Total simulation time " 	60
scalar SASim.node[95].appl 	"Total number of generated packets " 	60
scalar SASim.node[95].batteryStats 	nominal 	13320000
attr unit  mW-s
scalar SASim.node[95].batteryStats 	total 	3641.6253735963
attr unit  mW-s
scalar SASim.node[95].batteryStats 	lifetime 	-1
attr unit  s
scalar SASim.node[95].batteryStats 	"Mean power consumption" 	60.693756226605
attr unit  mW
scalar SASim.node[95].batteryStats 	"num devices" 	1
scalar SASim.node[95].batteryStats 	"physical layer" 	0
scalar SASim.node[95].batteryStats 	"device total (mWs)" 	3641.6253782398
scalar SASim.node[95].batteryStats 	account 	0
scalar SASim.node[95].batteryStats 	"energy (mWs)" 	0
scalar SASim.node[95].batteryStats 	"time (s)" 	0
scalar SASim.node[95].batteryStats 	account 	1
scalar SASim.node[95].batteryStats 	"energy (mWs)" 	3618.2396614398
scalar SASim.node[95].batteryStats 	"time (s)" 	59.628208
scalar SASim.node[95].batteryStats 	account 	2
scalar SASim.node[95].batteryStats 	"energy (mWs)" 	23.3857168
scalar SASim.node[95].batteryStats 	"time (s)" 	0.371792
scalar SASim.node[95].batteryStats 	account 	3
scalar SASim.node[95].batteryStats 	"energy (mWs)" 	0
scalar SASim.node[95].batteryStats 	"time (s)" 	0
scalar SASim.node[95].batteryStats 	account 	4
scalar SASim.node[95].batteryStats 	"energy (mWs)" 	0
scalar SASim.node[95].batteryStats 	"time (s)" 	0
scalar SASim.node[96].nic.mac 	ACK_count 	0
scalar SASim.node[96].nic.mac 	channelSwitching_count 	0
scalar SASim.node[96].nic.mac 	"Total number of packets sent" 	0
scalar SASim.node[96].nic.phy 	nbFramesWithInterference 	241
scalar SASim.node[96].nic.phy 	nbFramesWithoutInterference 	5002
scalar SASim.node[96].nic.phy 	nbFramesWithInterferencePartial 	0
scalar SASim.node[96].nic.phy 	nbFramesWithoutInterferencePartial 	0
scalar SASim.node[96].nic.phy 	nbFramesWithInterferenceDropped 	186
scalar SASim.node[96].nic.phy 	nbFramesWithoutInterferenceDropped 	0
scalar SASim.node[96].appl 	"Total simulation time " 	60
scalar SASim.node[96].appl 	"Total number of generated packets " 	0
scalar SASim.node[96].batteryStats 	nominal 	13320000
attr unit  mW-s
scalar SASim.node[96].batteryStats 	total 	3640.878281666
attr unit  mW-s
scalar SASim.node[96].batteryStats 	lifetime 	-1
attr unit  s
scalar SASim.node[96].batteryStats 	"Mean power consumption" 	60.681304694433
attr unit  mW
scalar SASim.node[96].batteryStats 	"num devices" 	1
scalar SASim.node[96].batteryStats 	"physical layer" 	0
scalar SASim.node[96].batteryStats 	"device total (mWs)" 	3640.8782860798
scalar SASim.node[96].batteryStats 	account 	0
scalar SASim.node[96].batteryStats 	"energy (mWs)" 	0
scalar SASim.node[96].batteryStats 	"time (s)" 	0
scalar SASim.node[96].batteryStats 	account 	1
scalar SASim.node[96].batteryStats 	"energy (mWs)" 	3638.6601804798
scalar SASim.node[96].batteryStats 	"time (s)" 	59.964736
scalar SASim.node[96].batteryStats 	account 	2
scalar SASim.node[96].batteryStats 	"energy (mWs)" 	2.2181056
scalar SASim.node[96].batteryStats 	"time (s)" 	0.035264
scalar SASim.node[96].batteryStats 	account 	3
scalar SASim.node[96].batteryStats 	"energy (mWs)" 	0
scalar SASim.node[96].batteryStats 	"time (s)" 	0
scalar SASim.node[96].batteryStats 	account 	4
scalar SASim.node[96].batteryStats 	"energy (mWs)" 	0
scalar SASim.node[96].batteryStats 	"time (s)" 	0
scalar SASim.node[97].nic.mac 	ACK_count 	58
scalar SASim.node[97].nic.mac 	channelSwitching_count 	1644
scalar SASim.node[97].nic.mac 	"Total number of packets sent" 	58
scalar SASim.node[97].nic.phy 	nbFramesWithInterference 	225
scalar SASim.node[97].nic.phy 	nbFramesWithoutInterference 	5000
scalar SASim.node[97].nic.phy 	nbFramesWithInterferencePartial 	0
scalar SASim.node[97].nic.phy 	nbFramesWithoutInterferencePartial 	0
scalar SASim.node[97].nic.phy 	nbFramesWithInterferenceDropped 	120
scalar SASim.node[97].nic.phy 	nbFramesWithoutInterferenceDropped 	0
scalar SASim.node[97].appl 	"Total simulation time " 	60
scalar SASim.node[97].appl 	"Total number of generated packets " 	60
scalar SASim.node[97].batteryStats 	nominal 	13320000
attr unit  mW-s
scalar SASim.node[97].batteryStats 	total 	3641.6217150483
attr unit  mW-s
scalar SASim.node[97].batteryStats 	lifetime 	-1
attr unit  s
scalar SASim.node[97].batteryStats 	"Mean power consumption" 	60.693695250805
attr unit  mW
scalar SASim.node[97].batteryStats 	"num devices" 	1
scalar SASim.node[97].batteryStats 	"physical layer" 	0
scalar SASim.node[97].batteryStats 	"device total (mWs)" 	3641.6217196798
scalar SASim.node[97].batteryStats 	account 	0
scalar SASim.node[97].batteryStats 	"energy (mWs)" 	0
scalar SASim.node[97].batteryStats 	"time (s)" 	0
scalar SASim.node[97].batteryStats 	account 	1
scalar SASim.node[97].batteryStats 	"energy (mWs)" 	3618.3396620798
scalar SASim.node[97].batteryStats 	"time (s)" 	59.629856
scalar SASim.node[97].batteryStats 	account 	2
scalar SASim.node[97].batteryStats 	"energy (mWs)" 	23.2820576
scalar SASim.node[97].batteryStats 	"time (s)" 	0.370144
scalar SASim.node[97].batteryStats 	account 	3
scalar SASim.node[97].batteryStats 	"energy (mWs)" 	0
scalar SASim.node[97].batteryStats 	"time (s)" 	0
scalar SASim.node[97].batteryStats 	account 	4
scalar SASim.node[97].batteryStats 	"energy (mWs)" 	0
scalar SASim.node[97].batteryStats 	"time (s)" 	0
scalar SASim.node[98].nic.mac 	ACK_count 	0
scalar SASim.node[98].nic.mac 	channelSwitching_count 	0
scalar SASim.node[98].nic.mac 	"Total number of packets sent" 	0
scalar SASim.node[98].nic.phy 	nbFramesWithInterference 	244
scalar SASim.node[98].nic.phy 	nbFramesWithoutInterference 	4992
scalar SASim.node[98].nic.phy 	nbFramesWithInterferencePartial 	0
scalar SASim.node[98].nic.phy 	nbFramesWithoutInterferencePartial 	0
scalar SASim.node[98].nic.phy 	nbFramesWithInterferenceDropped 	178
scalar SASim.node[98].nic.phy 	nbFramesWithoutInterferenceDropped 	0
scalar SASim.node[98].appl 	"Total simulation time " 	60
scalar SASim.node[98].appl 	"Total number of generated packets " 	0
scalar SASim.node[98].batteryStats 	nominal 	13320000
attr unit  mW-s
scalar SASim.node[98].batteryStats 	total 	3640.879631415
attr unit  mW-s
scalar SASim.node[98].batteryStats 	lifetime 	-1
attr unit  s
scalar SASim.node[98].batteryStats 	"Mean power consumption" 	60.68132719025
attr unit  mW
scalar SASim.node[98].batteryStats 	"num devices" 	1
scalar SASim.node[98].batteryStats 	"physical layer" 	0
scalar SASim.node[98].batteryStats 	"device total (mWs)" 	3640.8796358398
scalar SASim.node[98].batteryStats 	account 	0
scalar SASim.node[98].batteryStats 	"energy (mWs)" 	0
scalar SASim.node[98].batteryStats 	"time (s)" 	0
scalar SASim.node[98].batteryStats 	account 	1
scalar SASim.node[98].batteryStats 	"energy (mWs)" 	3638.6232870398
scalar SASim.node[98].batteryStats 	"time (s)" 	59.964128
scalar SASim.node[98].batteryStats 	account 	2
scalar SASim.node[98].batteryStats 	"energy (mWs)" 	2.2563488
scalar SASim.node[98].batteryStats 	"time (s)" 	0.035872
scalar SASim.node[98].batteryStats 	account 	3
scalar SASim.node[98].batteryStats 	"energy (mWs)" 	0
scalar SASim.node[98].batteryStats 	"time (s)" 	0
scalar SASim.node[98].batteryStats 	account 	4
scalar SASim.node[98].batteryStats 	"energy (mWs)" 	0
scalar SASim.node[98].batteryStats 	"time (s)" 	0
scalar SASim.node[99].nic.mac 	ACK_count 	59
scalar SASim.node[99].nic.mac 	channelSwitching_count 	1644
scalar SASim.node[99].nic.mac 	"Total number of packets sent" 	59
scalar SASim.node[99].nic.phy 	nbFramesWithInterference 	253
scalar SASim.node[99].nic.phy 	nbFramesWithoutInterference 	4980
scalar SASim.node[99].nic.phy 	nbFramesWithInterferencePartial 	0
scalar SASim.node[99].nic.phy 	nbFramesWithoutInterferencePartial 	0
scalar SASim.node[99].nic.phy 	nbFramesWithInterferenceDropped 	97
scalar SASim.node[99].nic.phy 	nbFramesWithoutInterferenceDropped 	0
scalar SASim.node[99].appl 	"Total simulation time " 	60
scalar SASim.node[99].appl 	"Total number of generated packets " 	60
scalar SASim.node[99].batteryStats 	nominal 	13320000
attr unit  mW-s
scalar SASim.node[99].batteryStats 	total 	3641.6316251196
attr unit  mW-s
scalar SASim.node[99].batteryStats 	lifetime 	-1
attr unit  s
scalar SASim.node[99].batteryStats 	"Mean power consumption" 	60.69386041866
attr unit  mW
scalar SASim.node[99].batteryStats 	"num devices" 	1
scalar SASim.node[99].batteryStats 	"physical layer" 	0
scalar SASim.node[99].batteryStats 	"device total (mWs)" 	3641.6316297598
scalar SASim.node[99].batteryStats 	account 	0
scalar SASim.node[99].batteryStats 	"energy (mWs)" 	0
scalar SASim.node[99].batteryStats 	"time (s)" 	0
scalar SASim.node[99].batteryStats 	account 	1
scalar SASim.node[99].batteryStats 	"energy (mWs)" 	3618.0687865598
scalar SASim.node[99].batteryStats 	"time (s)" 	59.625392
scalar SASim.node[99].batteryStats 	account 	2
scalar SASim.node[99].batteryStats 	"energy (mWs)" 	23.5628432
scalar SASim.node[99].batteryStats 	"time (s)" 	0.374608
scalar SASim.node[99].batteryStats 	account 	3
scalar SASim.node[99].batteryStats 	"energy (mWs)" 	0
scalar SASim.node[99].batteryStats 	"time (s)" 	0
scalar SASim.node[99].batteryStats 	account 	4
scalar SASim.node[99].batteryStats 	"energy (mWs)" 	0
scalar SASim.node[99].batteryStats 	"time (s)" 	0
scalar SASim.spectrumDatabase[0].nic.mac 	ACK_count 	0
scalar SASim.spectrumDatabase[0].nic.mac 	channelSwitching_count 	0
scalar SASim.spectrumDatabase[0].nic.mac 	"Total number of packets sent" 	0
scalar SASim.spectrumDatabase[0].nic.phy 	nbFramesWithInterference 	0
scalar SASim.spectrumDatabase[0].nic.phy 	nbFramesWithoutInterference 	0
scalar SASim.spectrumDatabase[0].nic.phy 	nbFramesWithInterferencePartial 	0
scalar SASim.spectrumDatabase[0].nic.phy 	nbFramesWithoutInterferencePartial 	0
scalar SASim.spectrumDatabase[0].nic.phy 	nbFramesWithInterferenceDropped 	0
scalar SASim.spectrumDatabase[0].nic.phy 	nbFramesWithoutInterferenceDropped 	0
scalar SASim.spectrumDatabase[0].appl 	"broadcast queued" 	0
scalar SASim.spectrumDatabase[0].appl 	"replies sent" 	0
scalar SASim.spectrumDatabase[0].appl 	"replies received" 	0
scalar SASim.spectrumDatabase[0].appl 	"Total simulation time " 	60
scalar SASim.spectrumDatabase[0].batteryStats 	nominal 	13320000000
attr unit  mW-s
scalar SASim.spectrumDatabase[0].batteryStats 	total 	13306683640.8
attr unit  mW-s
scalar SASim.spectrumDatabase[0].batteryStats 	lifetime 	-1
attr unit  s
scalar SASim.spectrumDatabase[0].batteryStats 	"Mean power consumption" 	221778060.68
attr unit  mW
scalar SASim.spectrumDatabase[0].batteryStats 	"num devices" 	1
scalar SASim.spectrumDatabase[0].batteryStats 	"physical layer" 	0
scalar SASim.spectrumDatabase[0].batteryStats 	"device total (mWs)" 	3640.8
scalar SASim.spectrumDatabase[0].batteryStats 	account 	0
scalar SASim.spectrumDatabase[0].batteryStats 	"energy (mWs)" 	0
scalar SASim.spectrumDatabase[0].batteryStats 	"time (s)" 	0
scalar SASim.spectrumDatabase[0].batteryStats 	account 	1
scalar SASim.spectrumDatabase[0].batteryStats 	"energy (mWs)" 	3640.8
scalar SASim.spectrumDatabase[0].batteryStats 	"time (s)" 	60
scalar SASim.spectrumDatabase[0].batteryStats 	account 	2
scalar SASim.spectrumDatabase[0].batteryStats 	"energy (mWs)" 	0
scalar SASim.spectrumDatabase[0].batteryStats 	"time (s)" 	0
scalar SASim.spectrumDatabase[0].batteryStats 	account 	3
scalar SASim.spectrumDatabase[0].batteryStats 	"energy (mWs)" 	0
scalar SASim.spectrumDatabase[0].batteryStats 	"time (s)" 	0
scalar SASim.spectrumDatabase[0].batteryStats 	account 	4
scalar SASim.spectrumDatabase[0].batteryStats 	"energy (mWs)" 	0
scalar SASim.spectrumDatabase[0].batteryStats 	"time (s)" 	0
