version 2
run General-0-20180312-21:43:47-1348
attr configname General
attr datetime 20180312-21:43:47
attr experiment General
attr inifile omnetpp_Sim.ini
attr iterationvars ""
attr iterationvars2 $repetition=0
attr measurement ""
attr network SASim
attr processid 1348
attr repetition 0
attr replication #0
attr resultdir results
attr runnumber 0
attr seedset 0

scalar SASim.node[0].nic.mac 	ACK_count 	0
scalar SASim.node[0].nic.mac 	channelSwitching_count 	0
scalar SASim.node[0].nic.mac 	"Total number of packets sent" 	0
scalar SASim.node[0].nic.phy 	nbFramesWithInterference 	456
scalar SASim.node[0].nic.phy 	nbFramesWithoutInterference 	8866
scalar SASim.node[0].nic.phy 	nbFramesWithInterferencePartial 	0
scalar SASim.node[0].nic.phy 	nbFramesWithoutInterferencePartial 	0
scalar SASim.node[0].nic.phy 	nbFramesWithInterferenceDropped 	280
scalar SASim.node[0].nic.phy 	nbFramesWithoutInterferenceDropped 	0
scalar SASim.node[0].appl 	"Total simulation time " 	60
scalar SASim.node[0].appl 	"Total number of generated packets " 	0
scalar SASim.node[0].batteryStats 	nominal 	13320000
attr unit  mW-s
scalar SASim.node[0].batteryStats 	total 	3640.9579139557
attr unit  mW-s
scalar SASim.node[0].batteryStats 	lifetime 	-1
attr unit  s
scalar SASim.node[0].batteryStats 	"Mean power consumption" 	60.682631899261
attr unit  mW
scalar SASim.node[0].batteryStats 	"num devices" 	1
scalar SASim.node[0].batteryStats 	"physical layer" 	0
scalar SASim.node[0].batteryStats 	"device total (mWs)" 	3640.9579219197
scalar SASim.node[0].batteryStats 	account 	0
scalar SASim.node[0].batteryStats 	"energy (mWs)" 	0
scalar SASim.node[0].batteryStats 	"time (s)" 	0
scalar SASim.node[0].batteryStats 	account 	1
scalar SASim.node[0].batteryStats 	"energy (mWs)" 	3636.4834675197
scalar SASim.node[0].batteryStats 	"time (s)" 	59.928864
scalar SASim.node[0].batteryStats 	account 	2
scalar SASim.node[0].batteryStats 	"energy (mWs)" 	4.4744544
scalar SASim.node[0].batteryStats 	"time (s)" 	0.071136
scalar SASim.node[0].batteryStats 	account 	3
scalar SASim.node[0].batteryStats 	"energy (mWs)" 	0
scalar SASim.node[0].batteryStats 	"time (s)" 	0
scalar SASim.node[0].batteryStats 	account 	4
scalar SASim.node[0].batteryStats 	"energy (mWs)" 	0
scalar SASim.node[0].batteryStats 	"time (s)" 	0
scalar SASim.node[1].nic.mac 	ACK_count 	119
scalar SASim.node[1].nic.mac 	channelSwitching_count 	2947
scalar SASim.node[1].nic.mac 	"Total number of packets sent" 	119
scalar SASim.node[1].nic.phy 	nbFramesWithInterference 	461
scalar SASim.node[1].nic.phy 	nbFramesWithoutInterference 	8877
scalar SASim.node[1].nic.phy 	nbFramesWithInterferencePartial 	0
scalar SASim.node[1].nic.phy 	nbFramesWithoutInterferencePartial 	0
scalar SASim.node[1].nic.phy 	nbFramesWithInterferenceDropped 	169
scalar SASim.node[1].nic.phy 	nbFramesWithoutInterferenceDropped 	0
scalar SASim.node[1].appl 	"Total simulation time " 	60
scalar SASim.node[1].appl 	"Total number of generated packets " 	120
scalar SASim.node[1].batteryStats 	nominal 	13320000
attr unit  mW-s
scalar SASim.node[1].batteryStats 	total 	3642.4239305332
attr unit  mW-s
scalar SASim.node[1].batteryStats 	lifetime 	-1
attr unit  s
scalar SASim.node[1].batteryStats 	"Mean power consumption" 	60.707065508887
attr unit  mW
scalar SASim.node[1].batteryStats 	"num devices" 	1
scalar SASim.node[1].batteryStats 	"physical layer" 	0
scalar SASim.node[1].batteryStats 	"device total (mWs)" 	3642.4239388797
scalar SASim.node[1].batteryStats 	account 	0
scalar SASim.node[1].batteryStats 	"energy (mWs)" 	0
scalar SASim.node[1].batteryStats 	"time (s)" 	0
scalar SASim.node[1].batteryStats 	account 	1
scalar SASim.node[1].batteryStats 	"energy (mWs)" 	3596.4123372797
scalar SASim.node[1].batteryStats 	"time (s)" 	59.268496
scalar SASim.node[1].batteryStats 	account 	2
scalar SASim.node[1].batteryStats 	"energy (mWs)" 	46.0116016
scalar SASim.node[1].batteryStats 	"time (s)" 	0.731504
scalar SASim.node[1].batteryStats 	account 	3
scalar SASim.node[1].batteryStats 	"energy (mWs)" 	0
scalar SASim.node[1].batteryStats 	"time (s)" 	0
scalar SASim.node[1].batteryStats 	account 	4
scalar SASim.node[1].batteryStats 	"energy (mWs)" 	0
scalar SASim.node[1].batteryStats 	"time (s)" 	0
scalar SASim.node[2].nic.mac 	ACK_count 	0
scalar SASim.node[2].nic.mac 	channelSwitching_count 	0
scalar SASim.node[2].nic.mac 	"Total number of packets sent" 	0
scalar SASim.node[2].nic.phy 	nbFramesWithInterference 	494
scalar SASim.node[2].nic.phy 	nbFramesWithoutInterference 	8939
scalar SASim.node[2].nic.phy 	nbFramesWithInterferencePartial 	0
scalar SASim.node[2].nic.phy 	nbFramesWithoutInterferencePartial 	0
scalar SASim.node[2].nic.phy 	nbFramesWithInterferenceDropped 	274
scalar SASim.node[2].nic.phy 	nbFramesWithoutInterferenceDropped 	0
scalar SASim.node[2].appl 	"Total simulation time " 	60
scalar SASim.node[2].appl 	"Total number of generated packets " 	0
scalar SASim.node[2].batteryStats 	nominal 	13320000
attr unit  mW-s
scalar SASim.node[2].batteryStats 	total 	3640.9592636414
attr unit  mW-s
scalar SASim.node[2].batteryStats 	lifetime 	-1
attr unit  s
scalar SASim.node[2].batteryStats 	"Mean power consumption" 	60.682654394023
attr unit  mW
scalar SASim.node[2].batteryStats 	"num devices" 	1
scalar SASim.node[2].batteryStats 	"physical layer" 	0
scalar SASim.node[2].batteryStats 	"device total (mWs)" 	3640.9592716797
scalar SASim.node[2].batteryStats 	account 	0
scalar SASim.node[2].batteryStats 	"energy (mWs)" 	0
scalar SASim.node[2].batteryStats 	"time (s)" 	0
scalar SASim.node[2].batteryStats 	account 	1
scalar SASim.node[2].batteryStats 	"energy (mWs)" 	3636.4465740797
scalar SASim.node[2].batteryStats 	"time (s)" 	59.928256
scalar SASim.node[2].batteryStats 	account 	2
scalar SASim.node[2].batteryStats 	"energy (mWs)" 	4.5126976
scalar SASim.node[2].batteryStats 	"time (s)" 	0.071744
scalar SASim.node[2].batteryStats 	account 	3
scalar SASim.node[2].batteryStats 	"energy (mWs)" 	0
scalar SASim.node[2].batteryStats 	"time (s)" 	0
scalar SASim.node[2].batteryStats 	account 	4
scalar SASim.node[2].batteryStats 	"energy (mWs)" 	0
scalar SASim.node[2].batteryStats 	"time (s)" 	0
scalar SASim.node[3].nic.mac 	ACK_count 	118
scalar SASim.node[3].nic.mac 	channelSwitching_count 	2971
scalar SASim.node[3].nic.mac 	"Total number of packets sent" 	118
scalar SASim.node[3].nic.phy 	nbFramesWithInterference 	466
scalar SASim.node[3].nic.phy 	nbFramesWithoutInterference 	8961
scalar SASim.node[3].nic.phy 	nbFramesWithInterferencePartial 	0
scalar SASim.node[3].nic.phy 	nbFramesWithoutInterferencePartial 	0
scalar SASim.node[3].nic.phy 	nbFramesWithInterferenceDropped 	164
scalar SASim.node[3].nic.phy 	nbFramesWithoutInterferenceDropped 	0
scalar SASim.node[3].appl 	"Total simulation time " 	60
scalar SASim.node[3].appl 	"Total number of generated packets " 	120
scalar SASim.node[3].batteryStats 	nominal 	13320000
attr unit  mW-s
scalar SASim.node[3].batteryStats 	total 	3642.4288677182
attr unit  mW-s
scalar SASim.node[3].batteryStats 	lifetime 	-1
attr unit  s
scalar SASim.node[3].batteryStats 	"Mean power consumption" 	60.707147795303
attr unit  mW
scalar SASim.node[3].batteryStats 	"num devices" 	1
scalar SASim.node[3].batteryStats 	"physical layer" 	0
scalar SASim.node[3].batteryStats 	"device total (mWs)" 	3642.4288761597
scalar SASim.node[3].batteryStats 	account 	0
scalar SASim.node[3].batteryStats 	"energy (mWs)" 	0
scalar SASim.node[3].batteryStats 	"time (s)" 	0
scalar SASim.node[3].batteryStats 	account 	1
scalar SASim.node[3].batteryStats 	"energy (mWs)" 	3596.2773849597
scalar SASim.node[3].batteryStats 	"time (s)" 	59.266272
scalar SASim.node[3].batteryStats 	account 	2
scalar SASim.node[3].batteryStats 	"energy (mWs)" 	46.1514912
scalar SASim.node[3].batteryStats 	"time (s)" 	0.733728
scalar SASim.node[3].batteryStats 	account 	3
scalar SASim.node[3].batteryStats 	"energy (mWs)" 	0
scalar SASim.node[3].batteryStats 	"time (s)" 	0
scalar SASim.node[3].batteryStats 	account 	4
scalar SASim.node[3].batteryStats 	"energy (mWs)" 	0
scalar SASim.node[3].batteryStats 	"time (s)" 	0
scalar SASim.node[4].nic.mac 	ACK_count 	0
scalar SASim.node[4].nic.mac 	channelSwitching_count 	0
scalar SASim.node[4].nic.mac 	"Total number of packets sent" 	0
scalar SASim.node[4].nic.phy 	nbFramesWithInterference 	451
scalar SASim.node[4].nic.phy 	nbFramesWithoutInterference 	8962
scalar SASim.node[4].nic.phy 	nbFramesWithInterferencePartial 	0
scalar SASim.node[4].nic.phy 	nbFramesWithoutInterferencePartial 	0
scalar SASim.node[4].nic.phy 	nbFramesWithInterferenceDropped 	298
scalar SASim.node[4].nic.phy 	nbFramesWithoutInterferenceDropped 	0
scalar SASim.node[4].appl 	"Total simulation time " 	60
scalar SASim.node[4].appl 	"Total number of generated packets " 	0
scalar SASim.node[4].batteryStats 	nominal 	13320000
attr unit  mW-s
scalar SASim.node[4].batteryStats 	total 	3640.9619631357
attr unit  mW-s
scalar SASim.node[4].batteryStats 	lifetime 	-1
attr unit  s
scalar SASim.node[4].batteryStats 	"Mean power consumption" 	60.682699385596
attr unit  mW
scalar SASim.node[4].batteryStats 	"num devices" 	1
scalar SASim.node[4].batteryStats 	"physical layer" 	0
scalar SASim.node[4].batteryStats 	"device total (mWs)" 	3640.9619711997
scalar SASim.node[4].batteryStats 	account 	0
scalar SASim.node[4].batteryStats 	"energy (mWs)" 	0
scalar SASim.node[4].batteryStats 	"time (s)" 	0
scalar SASim.node[4].batteryStats 	account 	1
scalar SASim.node[4].batteryStats 	"energy (mWs)" 	3636.3727871997
scalar SASim.node[4].batteryStats 	"time (s)" 	59.92704
scalar SASim.node[4].batteryStats 	account 	2
scalar SASim.node[4].batteryStats 	"energy (mWs)" 	4.589184
scalar SASim.node[4].batteryStats 	"time (s)" 	0.07296
scalar SASim.node[4].batteryStats 	account 	3
scalar SASim.node[4].batteryStats 	"energy (mWs)" 	0
scalar SASim.node[4].batteryStats 	"time (s)" 	0
scalar SASim.node[4].batteryStats 	account 	4
scalar SASim.node[4].batteryStats 	"energy (mWs)" 	0
scalar SASim.node[4].batteryStats 	"time (s)" 	0
scalar SASim.node[5].nic.mac 	ACK_count 	120
scalar SASim.node[5].nic.mac 	channelSwitching_count 	2983
scalar SASim.node[5].nic.mac 	"Total number of packets sent" 	120
scalar SASim.node[5].nic.phy 	nbFramesWithInterference 	459
scalar SASim.node[5].nic.phy 	nbFramesWithoutInterference 	8986
scalar SASim.node[5].nic.phy 	nbFramesWithInterferencePartial 	0
scalar SASim.node[5].nic.phy 	nbFramesWithoutInterferencePartial 	0
scalar SASim.node[5].nic.phy 	nbFramesWithInterferenceDropped 	161
scalar SASim.node[5].nic.phy 	nbFramesWithoutInterferenceDropped 	0
scalar SASim.node[5].appl 	"Total simulation time " 	60
scalar SASim.node[5].appl 	"Total number of generated packets " 	120
scalar SASim.node[5].batteryStats 	nominal 	13320000
attr unit  mW-s
scalar SASim.node[5].batteryStats 	total 	3642.4463435393
attr unit  mW-s
scalar SASim.node[5].batteryStats 	lifetime 	-1
attr unit  s
scalar SASim.node[5].batteryStats 	"Mean power consumption" 	60.707439058988
attr unit  mW
scalar SASim.node[5].batteryStats 	"num devices" 	1
scalar SASim.node[5].batteryStats 	"physical layer" 	0
scalar SASim.node[5].batteryStats 	"device total (mWs)" 	3642.4463519997
scalar SASim.node[5].batteryStats 	account 	0
scalar SASim.node[5].batteryStats 	"energy (mWs)" 	0
scalar SASim.node[5].batteryStats 	"time (s)" 	0
scalar SASim.node[5].batteryStats 	account 	1
scalar SASim.node[5].batteryStats 	"energy (mWs)" 	3595.7997119997
scalar SASim.node[5].batteryStats 	"time (s)" 	59.2584
scalar SASim.node[5].batteryStats 	account 	2
scalar SASim.node[5].batteryStats 	"energy (mWs)" 	46.64664
scalar SASim.node[5].batteryStats 	"time (s)" 	0.7416
scalar SASim.node[5].batteryStats 	account 	3
scalar SASim.node[5].batteryStats 	"energy (mWs)" 	0
scalar SASim.node[5].batteryStats 	"time (s)" 	0
scalar SASim.node[5].batteryStats 	account 	4
scalar SASim.node[5].batteryStats 	"energy (mWs)" 	0
scalar SASim.node[5].batteryStats 	"time (s)" 	0
scalar SASim.node[6].nic.mac 	ACK_count 	0
scalar SASim.node[6].nic.mac 	channelSwitching_count 	0
scalar SASim.node[6].nic.mac 	"Total number of packets sent" 	0
scalar SASim.node[6].nic.phy 	nbFramesWithInterference 	500
scalar SASim.node[6].nic.phy 	nbFramesWithoutInterference 	9103
scalar SASim.node[6].nic.phy 	nbFramesWithInterferencePartial 	0
scalar SASim.node[6].nic.phy 	nbFramesWithoutInterferencePartial 	0
scalar SASim.node[6].nic.phy 	nbFramesWithInterferenceDropped 	266
scalar SASim.node[6].nic.phy 	nbFramesWithoutInterferenceDropped 	0
scalar SASim.node[6].appl 	"Total simulation time " 	60
scalar SASim.node[6].appl 	"Total number of generated packets " 	0
scalar SASim.node[6].batteryStats 	nominal 	13320000
attr unit  mW-s
scalar SASim.node[6].batteryStats 	total 	3640.9606132712
attr unit  mW-s
scalar SASim.node[6].batteryStats 	lifetime 	-1
attr unit  s
scalar SASim.node[6].batteryStats 	"Mean power consumption" 	60.682676887854
attr unit  mW
scalar SASim.node[6].batteryStats 	"num devices" 	1
scalar SASim.node[6].batteryStats 	"physical layer" 	0
scalar SASim.node[6].batteryStats 	"device total (mWs)" 	3640.9606214396
scalar SASim.node[6].batteryStats 	account 	0
scalar SASim.node[6].batteryStats 	"energy (mWs)" 	0
scalar SASim.node[6].batteryStats 	"time (s)" 	0
scalar SASim.node[6].batteryStats 	account 	1
scalar SASim.node[6].batteryStats 	"energy (mWs)" 	3636.4096806396
scalar SASim.node[6].batteryStats 	"time (s)" 	59.927648
scalar SASim.node[6].batteryStats 	account 	2
scalar SASim.node[6].batteryStats 	"energy (mWs)" 	4.5509408
scalar SASim.node[6].batteryStats 	"time (s)" 	0.072352
scalar SASim.node[6].batteryStats 	account 	3
scalar SASim.node[6].batteryStats 	"energy (mWs)" 	0
scalar SASim.node[6].batteryStats 	"time (s)" 	0
scalar SASim.node[6].batteryStats 	account 	4
scalar SASim.node[6].batteryStats 	"energy (mWs)" 	0
scalar SASim.node[6].batteryStats 	"time (s)" 	0
scalar SASim.node[7].nic.mac 	ACK_count 	119
scalar SASim.node[7].nic.mac 	channelSwitching_count 	3034
scalar SASim.node[7].nic.mac 	"Total number of packets sent" 	119
scalar SASim.node[7].nic.phy 	nbFramesWithInterference 	438
scalar SASim.node[7].nic.phy 	nbFramesWithoutInterference 	9125
scalar SASim.node[7].nic.phy 	nbFramesWithInterferencePartial 	0
scalar SASim.node[7].nic.phy 	nbFramesWithoutInterferencePartial 	0
scalar SASim.node[7].nic.phy 	nbFramesWithInterferenceDropped 	190
scalar SASim.node[7].nic.phy 	nbFramesWithoutInterferenceDropped 	0
scalar SASim.node[7].appl 	"Total simulation time " 	60
scalar SASim.node[7].appl 	"Total number of generated packets " 	120
scalar SASim.node[7].batteryStats 	nominal 	13320000
attr unit  mW-s
scalar SASim.node[7].batteryStats 	total 	3642.4419034272
attr unit  mW-s
scalar SASim.node[7].batteryStats 	lifetime 	-1
attr unit  s
scalar SASim.node[7].batteryStats 	"Mean power consumption" 	60.707365057121
attr unit  mW
scalar SASim.node[7].batteryStats 	"num devices" 	1
scalar SASim.node[7].batteryStats 	"physical layer" 	0
scalar SASim.node[7].batteryStats 	"device total (mWs)" 	3642.4419119996
scalar SASim.node[7].batteryStats 	account 	0
scalar SASim.node[7].batteryStats 	"energy (mWs)" 	0
scalar SASim.node[7].batteryStats 	"time (s)" 	0
scalar SASim.node[7].batteryStats 	account 	1
scalar SASim.node[7].batteryStats 	"energy (mWs)" 	3595.9210719996
scalar SASim.node[7].batteryStats 	"time (s)" 	59.2604
scalar SASim.node[7].batteryStats 	account 	2
scalar SASim.node[7].batteryStats 	"energy (mWs)" 	46.52084
scalar SASim.node[7].batteryStats 	"time (s)" 	0.7396
scalar SASim.node[7].batteryStats 	account 	3
scalar SASim.node[7].batteryStats 	"energy (mWs)" 	0
scalar SASim.node[7].batteryStats 	"time (s)" 	0
scalar SASim.node[7].batteryStats 	account 	4
scalar SASim.node[7].batteryStats 	"energy (mWs)" 	0
scalar SASim.node[7].batteryStats 	"time (s)" 	0
scalar SASim.node[8].nic.mac 	ACK_count 	0
scalar SASim.node[8].nic.mac 	channelSwitching_count 	0
scalar SASim.node[8].nic.mac 	"Total number of packets sent" 	0
scalar SASim.node[8].nic.phy 	nbFramesWithInterference 	491
scalar SASim.node[8].nic.phy 	nbFramesWithoutInterference 	8992
scalar SASim.node[8].nic.phy 	nbFramesWithInterferencePartial 	0
scalar SASim.node[8].nic.phy 	nbFramesWithoutInterferencePartial 	0
scalar SASim.node[8].nic.phy 	nbFramesWithInterferenceDropped 	285
scalar SASim.node[8].nic.phy 	nbFramesWithoutInterferenceDropped 	0
scalar SASim.node[8].appl 	"Total simulation time " 	60
scalar SASim.node[8].appl 	"Total number of generated packets " 	0
scalar SASim.node[8].batteryStats 	nominal 	13320000
attr unit  mW-s
scalar SASim.node[8].batteryStats 	total 	3640.9579138067
attr unit  mW-s
scalar SASim.node[8].batteryStats 	lifetime 	-1
attr unit  s
scalar SASim.node[8].batteryStats 	"Mean power consumption" 	60.682631896778
attr unit  mW
scalar SASim.node[8].batteryStats 	"num devices" 	1
scalar SASim.node[8].batteryStats 	"physical layer" 	0
scalar SASim.node[8].batteryStats 	"device total (mWs)" 	3640.9579219196
scalar SASim.node[8].batteryStats 	account 	0
scalar SASim.node[8].batteryStats 	"energy (mWs)" 	0
scalar SASim.node[8].batteryStats 	"time (s)" 	0
scalar SASim.node[8].batteryStats 	account 	1
scalar SASim.node[8].batteryStats 	"energy (mWs)" 	3636.4834675196
scalar SASim.node[8].batteryStats 	"time (s)" 	59.928864
scalar SASim.node[8].batteryStats 	account 	2
scalar SASim.node[8].batteryStats 	"energy (mWs)" 	4.4744544
scalar SASim.node[8].batteryStats 	"time (s)" 	0.071136
scalar SASim.node[8].batteryStats 	account 	3
scalar SASim.node[8].batteryStats 	"energy (mWs)" 	0
scalar SASim.node[8].batteryStats 	"time (s)" 	0
scalar SASim.node[8].batteryStats 	account 	4
scalar SASim.node[8].batteryStats 	"energy (mWs)" 	0
scalar SASim.node[8].batteryStats 	"time (s)" 	0
scalar SASim.node[9].nic.mac 	ACK_count 	117
scalar SASim.node[9].nic.mac 	channelSwitching_count 	2988
scalar SASim.node[9].nic.mac 	"Total number of packets sent" 	117
scalar SASim.node[9].nic.phy 	nbFramesWithInterference 	466
scalar SASim.node[9].nic.phy 	nbFramesWithoutInterference 	9010
scalar SASim.node[9].nic.phy 	nbFramesWithInterferencePartial 	0
scalar SASim.node[9].nic.phy 	nbFramesWithoutInterferencePartial 	0
scalar SASim.node[9].nic.phy 	nbFramesWithInterferenceDropped 	168
scalar SASim.node[9].nic.phy 	nbFramesWithoutInterferenceDropped 	0
scalar SASim.node[9].appl 	"Total simulation time " 	60
scalar SASim.node[9].appl 	"Total number of generated packets " 	120
scalar SASim.node[9].batteryStats 	nominal 	13320000
attr unit  mW-s
scalar SASim.node[9].batteryStats 	total 	3642.4220833238
attr unit  mW-s
scalar SASim.node[9].batteryStats 	lifetime 	-1
attr unit  s
scalar SASim.node[9].batteryStats 	"Mean power consumption" 	60.707034722064
attr unit  mW
scalar SASim.node[9].batteryStats 	"num devices" 	1
scalar SASim.node[9].batteryStats 	"physical layer" 	0
scalar SASim.node[9].batteryStats 	"device total (mWs)" 	3642.4220918397
scalar SASim.node[9].batteryStats 	account 	0
scalar SASim.node[9].batteryStats 	"energy (mWs)" 	0
scalar SASim.node[9].batteryStats 	"time (s)" 	0
scalar SASim.node[9].batteryStats 	account 	1
scalar SASim.node[9].batteryStats 	"energy (mWs)" 	3596.4628230397
scalar SASim.node[9].batteryStats 	"time (s)" 	59.269328
scalar SASim.node[9].batteryStats 	account 	2
scalar SASim.node[9].batteryStats 	"energy (mWs)" 	45.9592688
scalar SASim.node[9].batteryStats 	"time (s)" 	0.730672
scalar SASim.node[9].batteryStats 	account 	3
scalar SASim.node[9].batteryStats 	"energy (mWs)" 	0
scalar SASim.node[9].batteryStats 	"time (s)" 	0
scalar SASim.node[9].batteryStats 	account 	4
scalar SASim.node[9].batteryStats 	"energy (mWs)" 	0
scalar SASim.node[9].batteryStats 	"time (s)" 	0
scalar SASim.node[10].nic.mac 	ACK_count 	0
scalar SASim.node[10].nic.mac 	channelSwitching_count 	0
scalar SASim.node[10].nic.mac 	"Total number of packets sent" 	0
scalar SASim.node[10].nic.phy 	nbFramesWithInterference 	480
scalar SASim.node[10].nic.phy 	nbFramesWithoutInterference 	8916
scalar SASim.node[10].nic.phy 	nbFramesWithInterferencePartial 	0
scalar SASim.node[10].nic.phy 	nbFramesWithoutInterferencePartial 	0
scalar SASim.node[10].nic.phy 	nbFramesWithInterferenceDropped 	297
scalar SASim.node[10].nic.phy 	nbFramesWithoutInterferenceDropped 	0
scalar SASim.node[10].appl 	"Total simulation time " 	60
scalar SASim.node[10].appl 	"Total number of generated packets " 	0
scalar SASim.node[10].batteryStats 	nominal 	13320000
attr unit  mW-s
scalar SASim.node[10].batteryStats 	total 	3640.9606134407
attr unit  mW-s
scalar SASim.node[10].batteryStats 	lifetime 	-1
attr unit  s
scalar SASim.node[10].batteryStats 	"Mean power consumption" 	60.682676890679
attr unit  mW
scalar SASim.node[10].batteryStats 	"num devices" 	1
scalar SASim.node[10].batteryStats 	"physical layer" 	0
scalar SASim.node[10].batteryStats 	"device total (mWs)" 	3640.9606214397
scalar SASim.node[10].batteryStats 	account 	0
scalar SASim.node[10].batteryStats 	"energy (mWs)" 	0
scalar SASim.node[10].batteryStats 	"time (s)" 	0
scalar SASim.node[10].batteryStats 	account 	1
scalar SASim.node[10].batteryStats 	"energy (mWs)" 	3636.4096806397
scalar SASim.node[10].batteryStats 	"time (s)" 	59.927648
scalar SASim.node[10].batteryStats 	account 	2
scalar SASim.node[10].batteryStats 	"energy (mWs)" 	4.5509408
scalar SASim.node[10].batteryStats 	"time (s)" 	0.072352
scalar SASim.node[10].batteryStats 	account 	3
scalar SASim.node[10].batteryStats 	"energy (mWs)" 	0
scalar SASim.node[10].batteryStats 	"time (s)" 	0
scalar SASim.node[10].batteryStats 	account 	4
scalar SASim.node[10].batteryStats 	"energy (mWs)" 	0
scalar SASim.node[10].batteryStats 	"time (s)" 	0
scalar SASim.node[11].nic.mac 	ACK_count 	119
scalar SASim.node[11].nic.mac 	channelSwitching_count 	2961
scalar SASim.node[11].nic.mac 	"Total number of packets sent" 	119
scalar SASim.node[11].nic.phy 	nbFramesWithInterference 	451
scalar SASim.node[11].nic.phy 	nbFramesWithoutInterference 	8942
scalar SASim.node[11].nic.phy 	nbFramesWithInterferencePartial 	0
scalar SASim.node[11].nic.phy 	nbFramesWithoutInterferencePartial 	0
scalar SASim.node[11].nic.phy 	nbFramesWithInterferenceDropped 	181
scalar SASim.node[11].nic.phy 	nbFramesWithoutInterferenceDropped 	0
scalar SASim.node[11].appl 	"Total simulation time " 	60
scalar SASim.node[11].appl 	"Total number of generated packets " 	120
scalar SASim.node[11].batteryStats 	nominal 	13320000
attr unit  mW-s
scalar SASim.node[11].batteryStats 	total 	3642.4442479145
attr unit  mW-s
scalar SASim.node[11].batteryStats 	lifetime 	-1
attr unit  s
scalar SASim.node[11].batteryStats 	"Mean power consumption" 	60.707404131908
attr unit  mW
scalar SASim.node[11].batteryStats 	"num devices" 	1
scalar SASim.node[11].batteryStats 	"physical layer" 	0
scalar SASim.node[11].batteryStats 	"device total (mWs)" 	3642.4442563197
scalar SASim.node[11].batteryStats 	account 	0
scalar SASim.node[11].batteryStats 	"energy (mWs)" 	0
scalar SASim.node[11].batteryStats 	"time (s)" 	0
scalar SASim.node[11].batteryStats 	account 	1
scalar SASim.node[11].batteryStats 	"energy (mWs)" 	3595.8569939197
scalar SASim.node[11].batteryStats 	"time (s)" 	59.259344
scalar SASim.node[11].batteryStats 	account 	2
scalar SASim.node[11].batteryStats 	"energy (mWs)" 	46.5872624
scalar SASim.node[11].batteryStats 	"time (s)" 	0.740656
scalar SASim.node[11].batteryStats 	account 	3
scalar SASim.node[11].batteryStats 	"energy (mWs)" 	0
scalar SASim.node[11].batteryStats 	"time (s)" 	0
scalar SASim.node[11].batteryStats 	account 	4
scalar SASim.node[11].batteryStats 	"energy (mWs)" 	0
scalar SASim.node[11].batteryStats 	"time (s)" 	0
scalar SASim.node[12].nic.mac 	ACK_count 	0
scalar SASim.node[12].nic.mac 	channelSwitching_count 	0
scalar SASim.node[12].nic.mac 	"Total number of packets sent" 	0
scalar SASim.node[12].nic.phy 	nbFramesWithInterference 	516
scalar SASim.node[12].nic.phy 	nbFramesWithoutInterference 	8975
scalar SASim.node[12].nic.phy 	nbFramesWithInterferencePartial 	0
scalar SASim.node[12].nic.phy 	nbFramesWithoutInterferencePartial 	0
scalar SASim.node[12].nic.phy 	nbFramesWithInterferenceDropped 	264
scalar SASim.node[12].nic.phy 	nbFramesWithoutInterferenceDropped 	0
scalar SASim.node[12].appl 	"Total simulation time " 	60
scalar SASim.node[12].appl 	"Total number of generated packets " 	0
scalar SASim.node[12].batteryStats 	nominal 	13320000
attr unit  mW-s
scalar SASim.node[12].batteryStats 	total 	3640.9619630948
attr unit  mW-s
scalar SASim.node[12].batteryStats 	lifetime 	-1
attr unit  s
scalar SASim.node[12].batteryStats 	"Mean power consumption" 	60.682699384913
attr unit  mW
scalar SASim.node[12].batteryStats 	"num devices" 	1
scalar SASim.node[12].batteryStats 	"physical layer" 	0
scalar SASim.node[12].batteryStats 	"device total (mWs)" 	3640.9619711997
scalar SASim.node[12].batteryStats 	account 	0
scalar SASim.node[12].batteryStats 	"energy (mWs)" 	0
scalar SASim.node[12].batteryStats 	"time (s)" 	0
scalar SASim.node[12].batteryStats 	account 	1
scalar SASim.node[12].batteryStats 	"energy (mWs)" 	3636.3727871997
scalar SASim.node[12].batteryStats 	"time (s)" 	59.92704
scalar SASim.node[12].batteryStats 	account 	2
scalar SASim.node[12].batteryStats 	"energy (mWs)" 	4.589184
scalar SASim.node[12].batteryStats 	"time (s)" 	0.07296
scalar SASim.node[12].batteryStats 	account 	3
scalar SASim.node[12].batteryStats 	"energy (mWs)" 	0
scalar SASim.node[12].batteryStats 	"time (s)" 	0
scalar SASim.node[12].batteryStats 	account 	4
scalar SASim.node[12].batteryStats 	"energy (mWs)" 	0
scalar SASim.node[12].batteryStats 	"time (s)" 	0
scalar SASim.node[13].nic.mac 	ACK_count 	120
scalar SASim.node[13].nic.mac 	channelSwitching_count 	2996
scalar SASim.node[13].nic.mac 	"Total number of packets sent" 	120
scalar SASim.node[13].nic.phy 	nbFramesWithInterference 	460
scalar SASim.node[13].nic.phy 	nbFramesWithoutInterference 	9005
scalar SASim.node[13].nic.phy 	nbFramesWithInterferencePartial 	0
scalar SASim.node[13].nic.phy 	nbFramesWithoutInterferencePartial 	0
scalar SASim.node[13].nic.phy 	nbFramesWithInterferenceDropped 	182
scalar SASim.node[13].nic.phy 	nbFramesWithoutInterferenceDropped 	0
scalar SASim.node[13].appl 	"Total simulation time " 	60
scalar SASim.node[13].appl 	"Total number of generated packets " 	120
scalar SASim.node[13].batteryStats 	nominal 	13320000
attr unit  mW-s
scalar SASim.node[13].batteryStats 	total 	3642.4549393244
attr unit  mW-s
scalar SASim.node[13].batteryStats 	lifetime 	-1
attr unit  s
scalar SASim.node[13].batteryStats 	"Mean power consumption" 	60.707582322073
attr unit  mW
scalar SASim.node[13].batteryStats 	"num devices" 	1
scalar SASim.node[13].batteryStats 	"physical layer" 	0
scalar SASim.node[13].batteryStats 	"device total (mWs)" 	3642.4549478397
scalar SASim.node[13].batteryStats 	account 	0
scalar SASim.node[13].batteryStats 	"energy (mWs)" 	0
scalar SASim.node[13].batteryStats 	"time (s)" 	0
scalar SASim.node[13].batteryStats 	account 	1
scalar SASim.node[13].batteryStats 	"energy (mWs)" 	3595.5647590397
scalar SASim.node[13].batteryStats 	"time (s)" 	59.254528
scalar SASim.node[13].batteryStats 	account 	2
scalar SASim.node[13].batteryStats 	"energy (mWs)" 	46.8901888
scalar SASim.node[13].batteryStats 	"time (s)" 	0.745472
scalar SASim.node[13].batteryStats 	account 	3
scalar SASim.node[13].batteryStats 	"energy (mWs)" 	0
scalar SASim.node[13].batteryStats 	"time (s)" 	0
scalar SASim.node[13].batteryStats 	account 	4
scalar SASim.node[13].batteryStats 	"energy (mWs)" 	0
scalar SASim.node[13].batteryStats 	"time (s)" 	0
scalar SASim.node[14].nic.mac 	ACK_count 	0
scalar SASim.node[14].nic.mac 	channelSwitching_count 	0
scalar SASim.node[14].nic.mac 	"Total number of packets sent" 	0
scalar SASim.node[14].nic.phy 	nbFramesWithInterference 	504
scalar SASim.node[14].nic.phy 	nbFramesWithoutInterference 	9023
scalar SASim.node[14].nic.phy 	nbFramesWithInterferencePartial 	0
scalar SASim.node[14].nic.phy 	nbFramesWithoutInterferencePartial 	0
scalar SASim.node[14].nic.phy 	nbFramesWithInterferenceDropped 	282
scalar SASim.node[14].nic.phy 	nbFramesWithoutInterferenceDropped 	0
scalar SASim.node[14].appl 	"Total simulation time " 	60
scalar SASim.node[14].appl 	"Total number of generated packets " 	0
scalar SASim.node[14].batteryStats 	nominal 	13320000
attr unit  mW-s
scalar SASim.node[14].batteryStats 	total 	3640.9592635222
attr unit  mW-s
scalar SASim.node[14].batteryStats 	lifetime 	-1
attr unit  s
scalar SASim.node[14].batteryStats 	"Mean power consumption" 	60.682654392036
attr unit  mW
scalar SASim.node[14].batteryStats 	"num devices" 	1
scalar SASim.node[14].batteryStats 	"physical layer" 	0
scalar SASim.node[14].batteryStats 	"device total (mWs)" 	3640.9592716797
scalar SASim.node[14].batteryStats 	account 	0
scalar SASim.node[14].batteryStats 	"energy (mWs)" 	0
scalar SASim.node[14].batteryStats 	"time (s)" 	0
scalar SASim.node[14].batteryStats 	account 	1
scalar SASim.node[14].batteryStats 	"energy (mWs)" 	3636.4465740797
scalar SASim.node[14].batteryStats 	"time (s)" 	59.928256
scalar SASim.node[14].batteryStats 	account 	2
scalar SASim.node[14].batteryStats 	"energy (mWs)" 	4.5126976
scalar SASim.node[14].batteryStats 	"time (s)" 	0.071744
scalar SASim.node[14].batteryStats 	account 	3
scalar SASim.node[14].batteryStats 	"energy (mWs)" 	0
scalar SASim.node[14].batteryStats 	"time (s)" 	0
scalar SASim.node[14].batteryStats 	account 	4
scalar SASim.node[14].batteryStats 	"energy (mWs)" 	0
scalar SASim.node[14].batteryStats 	"time (s)" 	0
scalar SASim.node[15].nic.mac 	ACK_count 	118
scalar SASim.node[15].nic.mac 	channelSwitching_count 	3010
scalar SASim.node[15].nic.mac 	"Total number of packets sent" 	118
scalar SASim.node[15].nic.phy 	nbFramesWithInterference 	456
scalar SASim.node[15].nic.phy 	nbFramesWithoutInterference 	9049
scalar SASim.node[15].nic.phy 	nbFramesWithInterferencePartial 	0
scalar SASim.node[15].nic.phy 	nbFramesWithoutInterferencePartial 	0
scalar SASim.node[15].nic.phy 	nbFramesWithInterferenceDropped 	183
scalar SASim.node[15].nic.phy 	nbFramesWithoutInterferenceDropped 	0
scalar SASim.node[15].appl 	"Total simulation time " 	60
scalar SASim.node[15].appl 	"Total number of generated packets " 	120
scalar SASim.node[15].batteryStats 	nominal 	13320000
attr unit  mW-s
scalar SASim.node[15].batteryStats 	total 	3642.4327747971
attr unit  mW-s
scalar SASim.node[15].batteryStats 	lifetime 	-1
attr unit  s
scalar SASim.node[15].batteryStats 	"Mean power consumption" 	60.707212913285
attr unit  mW
scalar SASim.node[15].batteryStats 	"num devices" 	1
scalar SASim.node[15].batteryStats 	"physical layer" 	0
scalar SASim.node[15].batteryStats 	"device total (mWs)" 	3642.4327833597
scalar SASim.node[15].batteryStats 	account 	0
scalar SASim.node[15].batteryStats 	"energy (mWs)" 	0
scalar SASim.node[15].batteryStats 	"time (s)" 	0
scalar SASim.node[15].batteryStats 	account 	1
scalar SASim.node[15].batteryStats 	"energy (mWs)" 	3596.1705881597
scalar SASim.node[15].batteryStats 	"time (s)" 	59.264512
scalar SASim.node[15].batteryStats 	account 	2
scalar SASim.node[15].batteryStats 	"energy (mWs)" 	46.2621952
scalar SASim.node[15].batteryStats 	"time (s)" 	0.735488
scalar SASim.node[15].batteryStats 	account 	3
scalar SASim.node[15].batteryStats 	"energy (mWs)" 	0
scalar SASim.node[15].batteryStats 	"time (s)" 	0
scalar SASim.node[15].batteryStats 	account 	4
scalar SASim.node[15].batteryStats 	"energy (mWs)" 	0
scalar SASim.node[15].batteryStats 	"time (s)" 	0
scalar SASim.node[16].nic.mac 	ACK_count 	0
scalar SASim.node[16].nic.mac 	channelSwitching_count 	0
scalar SASim.node[16].nic.mac 	"Total number of packets sent" 	0
scalar SASim.node[16].nic.phy 	nbFramesWithInterference 	458
scalar SASim.node[16].nic.phy 	nbFramesWithoutInterference 	8850
scalar SASim.node[16].nic.phy 	nbFramesWithInterferencePartial 	0
scalar SASim.node[16].nic.phy 	nbFramesWithoutInterferencePartial 	0
scalar SASim.node[16].nic.phy 	nbFramesWithInterferenceDropped 	308
scalar SASim.node[16].nic.phy 	nbFramesWithoutInterferenceDropped 	0
scalar SASim.node[16].appl 	"Total simulation time " 	60
scalar SASim.node[16].appl 	"Total number of generated packets " 	0
scalar SASim.node[16].batteryStats 	nominal 	13320000
attr unit  mW-s
scalar SASim.node[16].batteryStats 	total 	3640.9606134761
attr unit  mW-s
scalar SASim.node[16].batteryStats 	lifetime 	-1
attr unit  s
scalar SASim.node[16].batteryStats 	"Mean power consumption" 	60.682676891269
attr unit  mW
scalar SASim.node[16].batteryStats 	"num devices" 	1
scalar SASim.node[16].batteryStats 	"physical layer" 	0
scalar SASim.node[16].batteryStats 	"device total (mWs)" 	3640.9606214397
scalar SASim.node[16].batteryStats 	account 	0
scalar SASim.node[16].batteryStats 	"energy (mWs)" 	0
scalar SASim.node[16].batteryStats 	"time (s)" 	0
scalar SASim.node[16].batteryStats 	account 	1
scalar SASim.node[16].batteryStats 	"energy (mWs)" 	3636.4096806397
scalar SASim.node[16].batteryStats 	"time (s)" 	59.927648
scalar SASim.node[16].batteryStats 	account 	2
scalar SASim.node[16].batteryStats 	"energy (mWs)" 	4.5509408
scalar SASim.node[16].batteryStats 	"time (s)" 	0.072352
scalar SASim.node[16].batteryStats 	account 	3
scalar SASim.node[16].batteryStats 	"energy (mWs)" 	0
scalar SASim.node[16].batteryStats 	"time (s)" 	0
scalar SASim.node[16].batteryStats 	account 	4
scalar SASim.node[16].batteryStats 	"energy (mWs)" 	0
scalar SASim.node[16].batteryStats 	"time (s)" 	0
scalar SASim.node[17].nic.mac 	ACK_count 	119
scalar SASim.node[17].nic.mac 	channelSwitching_count 	2944
scalar SASim.node[17].nic.mac 	"Total number of packets sent" 	119
scalar SASim.node[17].nic.phy 	nbFramesWithInterference 	446
scalar SASim.node[17].nic.phy 	nbFramesWithoutInterference 	8866
scalar SASim.node[17].nic.phy 	nbFramesWithInterferencePartial 	0
scalar SASim.node[17].nic.phy 	nbFramesWithoutInterferencePartial 	0
scalar SASim.node[17].nic.phy 	nbFramesWithInterferenceDropped 	183
scalar SASim.node[17].nic.phy 	nbFramesWithoutInterferenceDropped 	0
scalar SASim.node[17].appl 	"Total simulation time " 	60
scalar SASim.node[17].appl 	"Total number of generated packets " 	120
scalar SASim.node[17].batteryStats 	nominal 	13320000
attr unit  mW-s
scalar SASim.node[17].batteryStats 	total 	3642.4465922657
attr unit  mW-s
scalar SASim.node[17].batteryStats 	lifetime 	-1
attr unit  s
scalar SASim.node[17].batteryStats 	"Mean power consumption" 	60.707443204429
attr unit  mW
scalar SASim.node[17].batteryStats 	"num devices" 	1
scalar SASim.node[17].batteryStats 	"physical layer" 	0
scalar SASim.node[17].batteryStats 	"device total (mWs)" 	3642.4466006397
scalar SASim.node[17].batteryStats 	account 	0
scalar SASim.node[17].batteryStats 	"energy (mWs)" 	0
scalar SASim.node[17].batteryStats 	"time (s)" 	0
scalar SASim.node[17].batteryStats 	account 	1
scalar SASim.node[17].batteryStats 	"energy (mWs)" 	3595.7929158397
scalar SASim.node[17].batteryStats 	"time (s)" 	59.258288
scalar SASim.node[17].batteryStats 	account 	2
scalar SASim.node[17].batteryStats 	"energy (mWs)" 	46.6536848
scalar SASim.node[17].batteryStats 	"time (s)" 	0.741712
scalar SASim.node[17].batteryStats 	account 	3
scalar SASim.node[17].batteryStats 	"energy (mWs)" 	0
scalar SASim.node[17].batteryStats 	"time (s)" 	0
scalar SASim.node[17].batteryStats 	account 	4
scalar SASim.node[17].batteryStats 	"energy (mWs)" 	0
scalar SASim.node[17].batteryStats 	"time (s)" 	0
scalar SASim.node[18].nic.mac 	ACK_count 	0
scalar SASim.node[18].nic.mac 	channelSwitching_count 	0
scalar SASim.node[18].nic.mac 	"Total number of packets sent" 	0
scalar SASim.node[18].nic.phy 	nbFramesWithInterference 	502
scalar SASim.node[18].nic.phy 	nbFramesWithoutInterference 	8995
scalar SASim.node[18].nic.phy 	nbFramesWithInterferencePartial 	0
scalar SASim.node[18].nic.phy 	nbFramesWithoutInterferencePartial 	0
scalar SASim.node[18].nic.phy 	nbFramesWithInterferenceDropped 	296
scalar SASim.node[18].nic.phy 	nbFramesWithoutInterferenceDropped 	0
scalar SASim.node[18].appl 	"Total simulation time " 	60
scalar SASim.node[18].appl 	"Total number of generated packets " 	0
scalar SASim.node[18].batteryStats 	nominal 	13320000
attr unit  mW-s
scalar SASim.node[18].batteryStats 	total 	3640.9592635389
attr unit  mW-s
scalar SASim.node[18].batteryStats 	lifetime 	-1
attr unit  s
scalar SASim.node[18].batteryStats 	"Mean power consumption" 	60.682654392316
attr unit  mW
scalar SASim.node[18].batteryStats 	"num devices" 	1
scalar SASim.node[18].batteryStats 	"physical layer" 	0
scalar SASim.node[18].batteryStats 	"device total (mWs)" 	3640.9592716797
scalar SASim.node[18].batteryStats 	account 	0
scalar SASim.node[18].batteryStats 	"energy (mWs)" 	0
scalar SASim.node[18].batteryStats 	"time (s)" 	0
scalar SASim.node[18].batteryStats 	account 	1
scalar SASim.node[18].batteryStats 	"energy (mWs)" 	3636.4465740797
scalar SASim.node[18].batteryStats 	"time (s)" 	59.928256
scalar SASim.node[18].batteryStats 	account 	2
scalar SASim.node[18].batteryStats 	"energy (mWs)" 	4.5126976
scalar SASim.node[18].batteryStats 	"time (s)" 	0.071744
scalar SASim.node[18].batteryStats 	account 	3
scalar SASim.node[18].batteryStats 	"energy (mWs)" 	0
scalar SASim.node[18].batteryStats 	"time (s)" 	0
scalar SASim.node[18].batteryStats 	account 	4
scalar SASim.node[18].batteryStats 	"energy (mWs)" 	0
scalar SASim.node[18].batteryStats 	"time (s)" 	0
scalar SASim.node[19].nic.mac 	ACK_count 	118
scalar SASim.node[19].nic.mac 	channelSwitching_count 	3000
scalar SASim.node[19].nic.mac 	"Total number of packets sent" 	118
scalar SASim.node[19].nic.phy 	nbFramesWithInterference 	437
scalar SASim.node[19].nic.phy 	nbFramesWithoutInterference 	9017
scalar SASim.node[19].nic.phy 	nbFramesWithInterferencePartial 	0
scalar SASim.node[19].nic.phy 	nbFramesWithoutInterferencePartial 	0
scalar SASim.node[19].nic.phy 	nbFramesWithInterferenceDropped 	221
scalar SASim.node[19].nic.phy 	nbFramesWithoutInterferenceDropped 	0
scalar SASim.node[19].appl 	"Total simulation time " 	60
scalar SASim.node[19].appl 	"Total number of generated packets " 	120
scalar SASim.node[19].batteryStats 	nominal 	13320000
attr unit  mW-s
scalar SASim.node[19].batteryStats 	total 	3642.432774812
attr unit  mW-s
scalar SASim.node[19].batteryStats 	lifetime 	-1
attr unit  s
scalar SASim.node[19].batteryStats 	"Mean power consumption" 	60.707212913533
attr unit  mW
scalar SASim.node[19].batteryStats 	"num devices" 	1
scalar SASim.node[19].batteryStats 	"physical layer" 	0
scalar SASim.node[19].batteryStats 	"device total (mWs)" 	3642.4327833597
scalar SASim.node[19].batteryStats 	account 	0
scalar SASim.node[19].batteryStats 	"energy (mWs)" 	0
scalar SASim.node[19].batteryStats 	"time (s)" 	0
scalar SASim.node[19].batteryStats 	account 	1
scalar SASim.node[19].batteryStats 	"energy (mWs)" 	3596.1705881597
scalar SASim.node[19].batteryStats 	"time (s)" 	59.264512
scalar SASim.node[19].batteryStats 	account 	2
scalar SASim.node[19].batteryStats 	"energy (mWs)" 	46.2621952
scalar SASim.node[19].batteryStats 	"time (s)" 	0.735488
scalar SASim.node[19].batteryStats 	account 	3
scalar SASim.node[19].batteryStats 	"energy (mWs)" 	0
scalar SASim.node[19].batteryStats 	"time (s)" 	0
scalar SASim.node[19].batteryStats 	account 	4
scalar SASim.node[19].batteryStats 	"energy (mWs)" 	0
scalar SASim.node[19].batteryStats 	"time (s)" 	0
scalar SASim.node[20].nic.mac 	ACK_count 	0
scalar SASim.node[20].nic.mac 	channelSwitching_count 	0
scalar SASim.node[20].nic.mac 	"Total number of packets sent" 	0
scalar SASim.node[20].nic.phy 	nbFramesWithInterference 	481
scalar SASim.node[20].nic.phy 	nbFramesWithoutInterference 	9079
scalar SASim.node[20].nic.phy 	nbFramesWithInterferencePartial 	0
scalar SASim.node[20].nic.phy 	nbFramesWithoutInterferencePartial 	0
scalar SASim.node[20].nic.phy 	nbFramesWithInterferenceDropped 	283
scalar SASim.node[20].nic.phy 	nbFramesWithoutInterferenceDropped 	0
scalar SASim.node[20].appl 	"Total simulation time " 	60
scalar SASim.node[20].appl 	"Total number of generated packets " 	0
scalar SASim.node[20].batteryStats 	nominal 	13320000
attr unit  mW-s
scalar SASim.node[20].batteryStats 	total 	3640.9565639831
attr unit  mW-s
scalar SASim.node[20].batteryStats 	lifetime 	-1
attr unit  s
scalar SASim.node[20].batteryStats 	"Mean power consumption" 	60.682609399719
attr unit  mW
scalar SASim.node[20].batteryStats 	"num devices" 	1
scalar SASim.node[20].batteryStats 	"physical layer" 	0
scalar SASim.node[20].batteryStats 	"device total (mWs)" 	3640.9565721597
scalar SASim.node[20].batteryStats 	account 	0
scalar SASim.node[20].batteryStats 	"energy (mWs)" 	0
scalar SASim.node[20].batteryStats 	"time (s)" 	0
scalar SASim.node[20].batteryStats 	account 	1
scalar SASim.node[20].batteryStats 	"energy (mWs)" 	3636.5203609597
scalar SASim.node[20].batteryStats 	"time (s)" 	59.929472
scalar SASim.node[20].batteryStats 	account 	2
scalar SASim.node[20].batteryStats 	"energy (mWs)" 	4.4362112
scalar SASim.node[20].batteryStats 	"time (s)" 	0.070528
scalar SASim.node[20].batteryStats 	account 	3
scalar SASim.node[20].batteryStats 	"energy (mWs)" 	0
scalar SASim.node[20].batteryStats 	"time (s)" 	0
scalar SASim.node[20].batteryStats 	account 	4
scalar SASim.node[20].batteryStats 	"energy (mWs)" 	0
scalar SASim.node[20].batteryStats 	"time (s)" 	0
scalar SASim.node[21].nic.mac 	ACK_count 	116
scalar SASim.node[21].nic.mac 	channelSwitching_count 	3031
scalar SASim.node[21].nic.mac 	"Total number of packets sent" 	116
scalar SASim.node[21].nic.phy 	nbFramesWithInterference 	428
scalar SASim.node[21].nic.phy 	nbFramesWithoutInterference 	9087
scalar SASim.node[21].nic.phy 	nbFramesWithInterferencePartial 	0
scalar SASim.node[21].nic.phy 	nbFramesWithoutInterferencePartial 	0
scalar SASim.node[21].nic.phy 	nbFramesWithInterferenceDropped 	196
scalar SASim.node[21].nic.phy 	nbFramesWithoutInterferenceDropped 	0
scalar SASim.node[21].appl 	"Total simulation time " 	60
scalar SASim.node[21].appl 	"Total number of generated packets " 	120
scalar SASim.node[21].batteryStats 	nominal 	13320000
attr unit  mW-s
scalar SASim.node[21].batteryStats 	total 	3642.4192061275
attr unit  mW-s
scalar SASim.node[21].batteryStats 	lifetime 	-1
attr unit  s
scalar SASim.node[21].batteryStats 	"Mean power consumption" 	60.706986768792
attr unit  mW
scalar SASim.node[21].batteryStats 	"num devices" 	1
scalar SASim.node[21].batteryStats 	"physical layer" 	0
scalar SASim.node[21].batteryStats 	"device total (mWs)" 	3642.4192147197
scalar SASim.node[21].batteryStats 	account 	0
scalar SASim.node[21].batteryStats 	"energy (mWs)" 	0
scalar SASim.node[21].batteryStats 	"time (s)" 	0
scalar SASim.node[21].batteryStats 	account 	1
scalar SASim.node[21].batteryStats 	"energy (mWs)" 	3596.5414643197
scalar SASim.node[21].batteryStats 	"time (s)" 	59.270624
scalar SASim.node[21].batteryStats 	account 	2
scalar SASim.node[21].batteryStats 	"energy (mWs)" 	45.8777504
scalar SASim.node[21].batteryStats 	"time (s)" 	0.729376
scalar SASim.node[21].batteryStats 	account 	3
scalar SASim.node[21].batteryStats 	"energy (mWs)" 	0
scalar SASim.node[21].batteryStats 	"time (s)" 	0
scalar SASim.node[21].batteryStats 	account 	4
scalar SASim.node[21].batteryStats 	"energy (mWs)" 	0
scalar SASim.node[21].batteryStats 	"time (s)" 	0
scalar SASim.node[22].nic.mac 	ACK_count 	0
scalar SASim.node[22].nic.mac 	channelSwitching_count 	0
scalar SASim.node[22].nic.mac 	"Total number of packets sent" 	0
scalar SASim.node[22].nic.phy 	nbFramesWithInterference 	515
scalar SASim.node[22].nic.phy 	nbFramesWithoutInterference 	9038
scalar SASim.node[22].nic.phy 	nbFramesWithInterferencePartial 	0
scalar SASim.node[22].nic.phy 	nbFramesWithoutInterferencePartial 	0
scalar SASim.node[22].nic.phy 	nbFramesWithInterferenceDropped 	269
scalar SASim.node[22].nic.phy 	nbFramesWithoutInterferenceDropped 	0
scalar SASim.node[22].appl 	"Total simulation time " 	60
scalar SASim.node[22].appl 	"Total number of generated packets " 	0
scalar SASim.node[22].batteryStats 	nominal 	13320000
attr unit  mW-s
scalar SASim.node[22].batteryStats 	total 	3640.957913775
attr unit  mW-s
scalar SASim.node[22].batteryStats 	lifetime 	-1
attr unit  s
scalar SASim.node[22].batteryStats 	"Mean power consumption" 	60.68263189625
attr unit  mW
scalar SASim.node[22].batteryStats 	"num devices" 	1
scalar SASim.node[22].batteryStats 	"physical layer" 	0
scalar SASim.node[22].batteryStats 	"device total (mWs)" 	3640.9579219197
scalar SASim.node[22].batteryStats 	account 	0
scalar SASim.node[22].batteryStats 	"energy (mWs)" 	0
scalar SASim.node[22].batteryStats 	"time (s)" 	0
scalar SASim.node[22].batteryStats 	account 	1
scalar SASim.node[22].batteryStats 	"energy (mWs)" 	3636.4834675197
scalar SASim.node[22].batteryStats 	"time (s)" 	59.928864
scalar SASim.node[22].batteryStats 	account 	2
scalar SASim.node[22].batteryStats 	"energy (mWs)" 	4.4744544
scalar SASim.node[22].batteryStats 	"time (s)" 	0.071136
scalar SASim.node[22].batteryStats 	account 	3
scalar SASim.node[22].batteryStats 	"energy (mWs)" 	0
scalar SASim.node[22].batteryStats 	"time (s)" 	0
scalar SASim.node[22].batteryStats 	account 	4
scalar SASim.node[22].batteryStats 	"energy (mWs)" 	0
scalar SASim.node[22].batteryStats 	"time (s)" 	0
scalar SASim.node[23].nic.mac 	ACK_count 	117
scalar SASim.node[23].nic.mac 	channelSwitching_count 	3008
scalar SASim.node[23].nic.mac 	"Total number of packets sent" 	117
scalar SASim.node[23].nic.phy 	nbFramesWithInterference 	470
scalar SASim.node[23].nic.phy 	nbFramesWithoutInterference 	9058
scalar SASim.node[23].nic.phy 	nbFramesWithInterferencePartial 	0
scalar SASim.node[23].nic.phy 	nbFramesWithoutInterferencePartial 	0
scalar SASim.node[23].nic.phy 	nbFramesWithInterferenceDropped 	166
scalar SASim.node[23].nic.phy 	nbFramesWithoutInterferenceDropped 	0
scalar SASim.node[23].appl 	"Total simulation time " 	60
scalar SASim.node[23].appl 	"Total number of generated packets " 	120
scalar SASim.node[23].batteryStats 	nominal 	13320000
attr unit  mW-s
scalar SASim.node[23].batteryStats 	total 	3642.4236461688
attr unit  mW-s
scalar SASim.node[23].batteryStats 	lifetime 	-1
attr unit  s
scalar SASim.node[23].batteryStats 	"Mean power consumption" 	60.70706076948
attr unit  mW
scalar SASim.node[23].batteryStats 	"num devices" 	1
scalar SASim.node[23].batteryStats 	"physical layer" 	0
scalar SASim.node[23].batteryStats 	"device total (mWs)" 	3642.4236547197
scalar SASim.node[23].batteryStats 	account 	0
scalar SASim.node[23].batteryStats 	"energy (mWs)" 	0
scalar SASim.node[23].batteryStats 	"time (s)" 	0
scalar SASim.node[23].batteryStats 	account 	1
scalar SASim.node[23].batteryStats 	"energy (mWs)" 	3596.4201043197
scalar SASim.node[23].batteryStats 	"time (s)" 	59.268624
scalar SASim.node[23].batteryStats 	account 	2
scalar SASim.node[23].batteryStats 	"energy (mWs)" 	46.0035504
scalar SASim.node[23].batteryStats 	"time (s)" 	0.731376
scalar SASim.node[23].batteryStats 	account 	3
scalar SASim.node[23].batteryStats 	"energy (mWs)" 	0
scalar SASim.node[23].batteryStats 	"time (s)" 	0
scalar SASim.node[23].batteryStats 	account 	4
scalar SASim.node[23].batteryStats 	"energy (mWs)" 	0
scalar SASim.node[23].batteryStats 	"time (s)" 	0
scalar SASim.node[24].nic.mac 	ACK_count 	0
scalar SASim.node[24].nic.mac 	channelSwitching_count 	0
scalar SASim.node[24].nic.mac 	"Total number of packets sent" 	0
scalar SASim.node[24].nic.phy 	nbFramesWithInterference 	504
scalar SASim.node[24].nic.phy 	nbFramesWithoutInterference 	9198
scalar SASim.node[24].nic.phy 	nbFramesWithInterferencePartial 	0
scalar SASim.node[24].nic.phy 	nbFramesWithoutInterferencePartial 	0
scalar SASim.node[24].nic.phy 	nbFramesWithInterferenceDropped 	305
scalar SASim.node[24].nic.phy 	nbFramesWithoutInterferenceDropped 	0
scalar SASim.node[24].appl 	"Total simulation time " 	60
scalar SASim.node[24].appl 	"Total number of generated packets " 	0
scalar SASim.node[24].batteryStats 	nominal 	13320000
attr unit  mW-s
scalar SASim.node[24].batteryStats 	total 	3640.9538643416
attr unit  mW-s
scalar SASim.node[24].batteryStats 	lifetime 	-1
attr unit  s
scalar SASim.node[24].batteryStats 	"Mean power consumption" 	60.682564405693
attr unit  mW
scalar SASim.node[24].batteryStats 	"num devices" 	1
scalar SASim.node[24].batteryStats 	"physical layer" 	0
scalar SASim.node[24].batteryStats 	"device total (mWs)" 	3640.9538726397
scalar SASim.node[24].batteryStats 	account 	0
scalar SASim.node[24].batteryStats 	"energy (mWs)" 	0
scalar SASim.node[24].batteryStats 	"time (s)" 	0
scalar SASim.node[24].batteryStats 	account 	1
scalar SASim.node[24].batteryStats 	"energy (mWs)" 	3636.5941478397
scalar SASim.node[24].batteryStats 	"time (s)" 	59.930688
scalar SASim.node[24].batteryStats 	account 	2
scalar SASim.node[24].batteryStats 	"energy (mWs)" 	4.3597248
scalar SASim.node[24].batteryStats 	"time (s)" 	0.069312
scalar SASim.node[24].batteryStats 	account 	3
scalar SASim.node[24].batteryStats 	"energy (mWs)" 	0
scalar SASim.node[24].batteryStats 	"time (s)" 	0
scalar SASim.node[24].batteryStats 	account 	4
scalar SASim.node[24].batteryStats 	"energy (mWs)" 	0
scalar SASim.node[24].batteryStats 	"time (s)" 	0
scalar SASim.node[25].nic.mac 	ACK_count 	114
scalar SASim.node[25].nic.mac 	channelSwitching_count 	3070
scalar SASim.node[25].nic.mac 	"Total number of packets sent" 	114
scalar SASim.node[25].nic.phy 	nbFramesWithInterference 	501
scalar SASim.node[25].nic.phy 	nbFramesWithoutInterference 	9209
scalar SASim.node[25].nic.phy 	nbFramesWithInterferencePartial 	0
scalar SASim.node[25].nic.phy 	nbFramesWithoutInterferencePartial 	0
scalar SASim.node[25].nic.phy 	nbFramesWithInterferenceDropped 	164
scalar SASim.node[25].nic.phy 	nbFramesWithoutInterferenceDropped 	0
scalar SASim.node[25].appl 	"Total simulation time " 	60
scalar SASim.node[25].appl 	"Total number of generated packets " 	120
scalar SASim.node[25].batteryStats 	nominal 	13320000
attr unit  mW-s
scalar SASim.node[25].batteryStats 	total 	3642.3892271407
attr unit  mW-s
scalar SASim.node[25].batteryStats 	lifetime 	-1
attr unit  s
scalar SASim.node[25].batteryStats 	"Mean power consumption" 	60.706487119012
attr unit  mW
scalar SASim.node[25].batteryStats 	"num devices" 	1
scalar SASim.node[25].batteryStats 	"physical layer" 	0
scalar SASim.node[25].batteryStats 	"device total (mWs)" 	3642.3892358397
scalar SASim.node[25].batteryStats 	account 	0
scalar SASim.node[25].batteryStats 	"energy (mWs)" 	0
scalar SASim.node[25].batteryStats 	"time (s)" 	0
scalar SASim.node[25].batteryStats 	account 	1
scalar SASim.node[25].batteryStats 	"energy (mWs)" 	3597.3608870397
scalar SASim.node[25].batteryStats 	"time (s)" 	59.284128
scalar SASim.node[25].batteryStats 	account 	2
scalar SASim.node[25].batteryStats 	"energy (mWs)" 	45.0283488
scalar SASim.node[25].batteryStats 	"time (s)" 	0.715872
scalar SASim.node[25].batteryStats 	account 	3
scalar SASim.node[25].batteryStats 	"energy (mWs)" 	0
scalar SASim.node[25].batteryStats 	"time (s)" 	0
scalar SASim.node[25].batteryStats 	account 	4
scalar SASim.node[25].batteryStats 	"energy (mWs)" 	0
scalar SASim.node[25].batteryStats 	"time (s)" 	0
scalar SASim.node[26].nic.mac 	ACK_count 	0
scalar SASim.node[26].nic.mac 	channelSwitching_count 	0
scalar SASim.node[26].nic.mac 	"Total number of packets sent" 	0
scalar SASim.node[26].nic.phy 	nbFramesWithInterference 	493
scalar SASim.node[26].nic.phy 	nbFramesWithoutInterference 	9299
scalar SASim.node[26].nic.phy 	nbFramesWithInterferencePartial 	0
scalar SASim.node[26].nic.phy 	nbFramesWithoutInterferencePartial 	0
scalar SASim.node[26].nic.phy 	nbFramesWithInterferenceDropped 	278
scalar SASim.node[26].nic.phy 	nbFramesWithoutInterferenceDropped 	0
scalar SASim.node[26].appl 	"Total simulation time " 	60
scalar SASim.node[26].appl 	"Total number of generated packets " 	0
scalar SASim.node[26].batteryStats 	nominal 	13320000
attr unit  mW-s
scalar SASim.node[26].batteryStats 	total 	3640.9606130868
attr unit  mW-s
scalar SASim.node[26].batteryStats 	lifetime 	-1
attr unit  s
scalar SASim.node[26].batteryStats 	"Mean power consumption" 	60.68267688478
attr unit  mW
scalar SASim.node[26].batteryStats 	"num devices" 	1
scalar SASim.node[26].batteryStats 	"physical layer" 	0
scalar SASim.node[26].batteryStats 	"device total (mWs)" 	3640.9606214396
scalar SASim.node[26].batteryStats 	account 	0
scalar SASim.node[26].batteryStats 	"energy (mWs)" 	0
scalar SASim.node[26].batteryStats 	"time (s)" 	0
scalar SASim.node[26].batteryStats 	account 	1
scalar SASim.node[26].batteryStats 	"energy (mWs)" 	3636.4096806396
scalar SASim.node[26].batteryStats 	"time (s)" 	59.927648
scalar SASim.node[26].batteryStats 	account 	2
scalar SASim.node[26].batteryStats 	"energy (mWs)" 	4.5509408
scalar SASim.node[26].batteryStats 	"time (s)" 	0.072352
scalar SASim.node[26].batteryStats 	account 	3
scalar SASim.node[26].batteryStats 	"energy (mWs)" 	0
scalar SASim.node[26].batteryStats 	"time (s)" 	0
scalar SASim.node[26].batteryStats 	account 	4
scalar SASim.node[26].batteryStats 	"energy (mWs)" 	0
scalar SASim.node[26].batteryStats 	"time (s)" 	0
scalar SASim.node[27].nic.mac 	ACK_count 	119
scalar SASim.node[27].nic.mac 	channelSwitching_count 	3099
scalar SASim.node[27].nic.mac 	"Total number of packets sent" 	119
scalar SASim.node[27].nic.phy 	nbFramesWithInterference 	474
scalar SASim.node[27].nic.phy 	nbFramesWithoutInterference 	9312
scalar SASim.node[27].nic.phy 	nbFramesWithInterferencePartial 	0
scalar SASim.node[27].nic.phy 	nbFramesWithoutInterferencePartial 	0
scalar SASim.node[27].nic.phy 	nbFramesWithInterferenceDropped 	171
scalar SASim.node[27].nic.phy 	nbFramesWithoutInterferenceDropped 	0
scalar SASim.node[27].appl 	"Total simulation time " 	60
scalar SASim.node[27].appl 	"Total number of generated packets " 	120
scalar SASim.node[27].batteryStats 	nominal 	13320000
attr unit  mW-s
scalar SASim.node[27].batteryStats 	total 	3642.4403403588
attr unit  mW-s
scalar SASim.node[27].batteryStats 	lifetime 	-1
attr unit  s
scalar SASim.node[27].batteryStats 	"Mean power consumption" 	60.707339005979
attr unit  mW
scalar SASim.node[27].batteryStats 	"num devices" 	1
scalar SASim.node[27].batteryStats 	"physical layer" 	0
scalar SASim.node[27].batteryStats 	"device total (mWs)" 	3642.4403491196
scalar SASim.node[27].batteryStats 	account 	0
scalar SASim.node[27].batteryStats 	"energy (mWs)" 	0
scalar SASim.node[27].batteryStats 	"time (s)" 	0
scalar SASim.node[27].batteryStats 	account 	1
scalar SASim.node[27].batteryStats 	"energy (mWs)" 	3595.9637907196
scalar SASim.node[27].batteryStats 	"time (s)" 	59.261104
scalar SASim.node[27].batteryStats 	account 	2
scalar SASim.node[27].batteryStats 	"energy (mWs)" 	46.4765584
scalar SASim.node[27].batteryStats 	"time (s)" 	0.738896
scalar SASim.node[27].batteryStats 	account 	3
scalar SASim.node[27].batteryStats 	"energy (mWs)" 	0
scalar SASim.node[27].batteryStats 	"time (s)" 	0
scalar SASim.node[27].batteryStats 	account 	4
scalar SASim.node[27].batteryStats 	"energy (mWs)" 	0
scalar SASim.node[27].batteryStats 	"time (s)" 	0
scalar SASim.node[28].nic.mac 	ACK_count 	0
scalar SASim.node[28].nic.mac 	channelSwitching_count 	0
scalar SASim.node[28].nic.mac 	"Total number of packets sent" 	0
scalar SASim.node[28].nic.phy 	nbFramesWithInterference 	470
scalar SASim.node[28].nic.phy 	nbFramesWithoutInterference 	9012
scalar SASim.node[28].nic.phy 	nbFramesWithInterferencePartial 	0
scalar SASim.node[28].nic.phy 	nbFramesWithoutInterferencePartial 	0
scalar SASim.node[28].nic.phy 	nbFramesWithInterferenceDropped 	316
scalar SASim.node[28].nic.phy 	nbFramesWithoutInterferenceDropped 	0
scalar SASim.node[28].appl 	"Total simulation time " 	60
scalar SASim.node[28].appl 	"Total number of generated packets " 	0
scalar SASim.node[28].batteryStats 	nominal 	13320000
attr unit  mW-s
scalar SASim.node[28].batteryStats 	total 	3640.9552142154
attr unit  mW-s
scalar SASim.node[28].batteryStats 	lifetime 	-1
attr unit  s
scalar SASim.node[28].batteryStats 	"Mean power consumption" 	60.682586903591
attr unit  mW
scalar SASim.node[28].batteryStats 	"num devices" 	1
scalar SASim.node[28].batteryStats 	"physical layer" 	0
scalar SASim.node[28].batteryStats 	"device total (mWs)" 	3640.9552223997
scalar SASim.node[28].batteryStats 	account 	0
scalar SASim.node[28].batteryStats 	"energy (mWs)" 	0
scalar SASim.node[28].batteryStats 	"time (s)" 	0
scalar SASim.node[28].batteryStats 	account 	1
scalar SASim.node[28].batteryStats 	"energy (mWs)" 	3636.5572543997
scalar SASim.node[28].batteryStats 	"time (s)" 	59.93008
scalar SASim.node[28].batteryStats 	account 	2
scalar SASim.node[28].batteryStats 	"energy (mWs)" 	4.397968
scalar SASim.node[28].batteryStats 	"time (s)" 	0.06992
scalar SASim.node[28].batteryStats 	account 	3
scalar SASim.node[28].batteryStats 	"energy (mWs)" 	0
scalar SASim.node[28].batteryStats 	"time (s)" 	0
scalar SASim.node[28].batteryStats 	account 	4
scalar SASim.node[28].batteryStats 	"energy (mWs)" 	0
scalar SASim.node[28].batteryStats 	"time (s)" 	0
scalar SASim.node[29].nic.mac 	ACK_count 	115
scalar SASim.node[29].nic.mac 	channelSwitching_count 	3014
scalar SASim.node[29].nic.mac 	"Total number of packets sent" 	115
scalar SASim.node[29].nic.phy 	nbFramesWithInterference 	460
scalar SASim.node[29].nic.phy 	nbFramesWithoutInterference 	9007
scalar SASim.node[29].nic.phy 	nbFramesWithInterferencePartial 	0
scalar SASim.node[29].nic.phy 	nbFramesWithoutInterferencePartial 	0
scalar SASim.node[29].nic.phy 	nbFramesWithInterferenceDropped 	193
scalar SASim.node[29].nic.phy 	nbFramesWithoutInterferenceDropped 	0
scalar SASim.node[29].appl 	"Total simulation time " 	60
scalar SASim.node[29].appl 	"Total number of generated packets " 	120
scalar SASim.node[29].batteryStats 	nominal 	13320000
attr unit  mW-s
scalar SASim.node[29].batteryStats 	total 	3642.4116403535
attr unit  mW-s
scalar SASim.node[29].batteryStats 	lifetime 	-1
attr unit  s
scalar SASim.node[29].batteryStats 	"Mean power consumption" 	60.706860672558
attr unit  mW
scalar SASim.node[29].batteryStats 	"num devices" 	1
scalar SASim.node[29].batteryStats 	"physical layer" 	0
scalar SASim.node[29].batteryStats 	"device total (mWs)" 	3642.4116489597
scalar SASim.node[29].batteryStats 	account 	0
scalar SASim.node[29].batteryStats 	"energy (mWs)" 	0
scalar SASim.node[29].batteryStats 	"time (s)" 	0
scalar SASim.node[29].batteryStats 	account 	1
scalar SASim.node[29].batteryStats 	"energy (mWs)" 	3596.7482617597
scalar SASim.node[29].batteryStats 	"time (s)" 	59.274032
scalar SASim.node[29].batteryStats 	account 	2
scalar SASim.node[29].batteryStats 	"energy (mWs)" 	45.6633872
scalar SASim.node[29].batteryStats 	"time (s)" 	0.725968
scalar SASim.node[29].batteryStats 	account 	3
scalar SASim.node[29].batteryStats 	"energy (mWs)" 	0
scalar SASim.node[29].batteryStats 	"time (s)" 	0
scalar SASim.node[29].batteryStats 	account 	4
scalar SASim.node[29].batteryStats 	"energy (mWs)" 	0
scalar SASim.node[29].batteryStats 	"time (s)" 	0
scalar SASim.node[30].nic.mac 	ACK_count 	0
scalar SASim.node[30].nic.mac 	channelSwitching_count 	0
scalar SASim.node[30].nic.mac 	"Total number of packets sent" 	0
scalar SASim.node[30].nic.phy 	nbFramesWithInterference 	499
scalar SASim.node[30].nic.phy 	nbFramesWithoutInterference 	9331
scalar SASim.node[30].nic.phy 	nbFramesWithInterferencePartial 	0
scalar SASim.node[30].nic.phy 	nbFramesWithoutInterferencePartial 	0
scalar SASim.node[30].nic.phy 	nbFramesWithInterferenceDropped 	315
scalar SASim.node[30].nic.phy 	nbFramesWithoutInterferenceDropped 	0
scalar SASim.node[30].appl 	"Total simulation time " 	60
scalar SASim.node[30].appl 	"Total number of generated packets " 	0
scalar SASim.node[30].batteryStats 	nominal 	13320000
attr unit  mW-s
scalar SASim.node[30].batteryStats 	total 	3640.9579135124
attr unit  mW-s
scalar SASim.node[30].batteryStats 	lifetime 	-1
attr unit  s
scalar SASim.node[30].batteryStats 	"Mean power consumption" 	60.682631891873
attr unit  mW
scalar SASim.node[30].batteryStats 	"num devices" 	1
scalar SASim.node[30].batteryStats 	"physical layer" 	0
scalar SASim.node[30].batteryStats 	"device total (mWs)" 	3640.9579219196
scalar SASim.node[30].batteryStats 	account 	0
scalar SASim.node[30].batteryStats 	"energy (mWs)" 	0
scalar SASim.node[30].batteryStats 	"time (s)" 	0
scalar SASim.node[30].batteryStats 	account 	1
scalar SASim.node[30].batteryStats 	"energy (mWs)" 	3636.4834675196
scalar SASim.node[30].batteryStats 	"time (s)" 	59.928864
scalar SASim.node[30].batteryStats 	account 	2
scalar SASim.node[30].batteryStats 	"energy (mWs)" 	4.4744544
scalar SASim.node[30].batteryStats 	"time (s)" 	0.071136
scalar SASim.node[30].batteryStats 	account 	3
scalar SASim.node[30].batteryStats 	"energy (mWs)" 	0
scalar SASim.node[30].batteryStats 	"time (s)" 	0
scalar SASim.node[30].batteryStats 	account 	4
scalar SASim.node[30].batteryStats 	"energy (mWs)" 	0
scalar SASim.node[30].batteryStats 	"time (s)" 	0
scalar SASim.node[31].nic.mac 	ACK_count 	117
scalar SASim.node[31].nic.mac 	channelSwitching_count 	3112
scalar SASim.node[31].nic.mac 	"Total number of packets sent" 	117
scalar SASim.node[31].nic.phy 	nbFramesWithInterference 	498
scalar SASim.node[31].nic.phy 	nbFramesWithoutInterference 	9347
scalar SASim.node[31].nic.phy 	nbFramesWithInterferencePartial 	0
scalar SASim.node[31].nic.phy 	nbFramesWithoutInterferencePartial 	0
scalar SASim.node[31].nic.phy 	nbFramesWithInterferenceDropped 	168
scalar SASim.node[31].nic.phy 	nbFramesWithoutInterferenceDropped 	0
scalar SASim.node[31].appl 	"Total simulation time " 	60
scalar SASim.node[31].appl 	"Total number of generated packets " 	120
scalar SASim.node[31].batteryStats 	nominal 	13320000
attr unit  mW-s
scalar SASim.node[31].batteryStats 	total 	3642.4283345416
attr unit  mW-s
scalar SASim.node[31].batteryStats 	lifetime 	-1
attr unit  s
scalar SASim.node[31].batteryStats 	"Mean power consumption" 	60.707138909027
attr unit  mW
scalar SASim.node[31].batteryStats 	"num devices" 	1
scalar SASim.node[31].batteryStats 	"physical layer" 	0
scalar SASim.node[31].batteryStats 	"device total (mWs)" 	3642.4283433596
scalar SASim.node[31].batteryStats 	account 	0
scalar SASim.node[31].batteryStats 	"energy (mWs)" 	0
scalar SASim.node[31].batteryStats 	"time (s)" 	0
scalar SASim.node[31].batteryStats 	account 	1
scalar SASim.node[31].batteryStats 	"energy (mWs)" 	3596.2919481596
scalar SASim.node[31].batteryStats 	"time (s)" 	59.266512
scalar SASim.node[31].batteryStats 	account 	2
scalar SASim.node[31].batteryStats 	"energy (mWs)" 	46.1363952
scalar SASim.node[31].batteryStats 	"time (s)" 	0.733488
scalar SASim.node[31].batteryStats 	account 	3
scalar SASim.node[31].batteryStats 	"energy (mWs)" 	0
scalar SASim.node[31].batteryStats 	"time (s)" 	0
scalar SASim.node[31].batteryStats 	account 	4
scalar SASim.node[31].batteryStats 	"energy (mWs)" 	0
scalar SASim.node[31].batteryStats 	"time (s)" 	0
scalar SASim.node[32].nic.mac 	ACK_count 	0
scalar SASim.node[32].nic.mac 	channelSwitching_count 	0
scalar SASim.node[32].nic.mac 	"Total number of packets sent" 	0
scalar SASim.node[32].nic.phy 	nbFramesWithInterference 	487
scalar SASim.node[32].nic.phy 	nbFramesWithoutInterference 	9081
scalar SASim.node[32].nic.phy 	nbFramesWithInterferencePartial 	0
scalar SASim.node[32].nic.phy 	nbFramesWithoutInterferencePartial 	0
scalar SASim.node[32].nic.phy 	nbFramesWithInterferenceDropped 	298
scalar SASim.node[32].nic.phy 	nbFramesWithoutInterferenceDropped 	0
scalar SASim.node[32].appl 	"Total simulation time " 	60
scalar SASim.node[32].appl 	"Total number of generated packets " 	0
scalar SASim.node[32].batteryStats 	nominal 	13320000
attr unit  mW-s
scalar SASim.node[32].batteryStats 	total 	3640.9565639812
attr unit  mW-s
scalar SASim.node[32].batteryStats 	lifetime 	-1
attr unit  s
scalar SASim.node[32].batteryStats 	"Mean power consumption" 	60.682609399688
attr unit  mW
scalar SASim.node[32].batteryStats 	"num devices" 	1
scalar SASim.node[32].batteryStats 	"physical layer" 	0
scalar SASim.node[32].batteryStats 	"device total (mWs)" 	3640.9565721597
scalar SASim.node[32].batteryStats 	account 	0
scalar SASim.node[32].batteryStats 	"energy (mWs)" 	0
scalar SASim.node[32].batteryStats 	"time (s)" 	0
scalar SASim.node[32].batteryStats 	account 	1
scalar SASim.node[32].batteryStats 	"energy (mWs)" 	3636.5203609597
scalar SASim.node[32].batteryStats 	"time (s)" 	59.929472
scalar SASim.node[32].batteryStats 	account 	2
scalar SASim.node[32].batteryStats 	"energy (mWs)" 	4.4362112
scalar SASim.node[32].batteryStats 	"time (s)" 	0.070528
scalar SASim.node[32].batteryStats 	account 	3
scalar SASim.node[32].batteryStats 	"energy (mWs)" 	0
scalar SASim.node[32].batteryStats 	"time (s)" 	0
scalar SASim.node[32].batteryStats 	account 	4
scalar SASim.node[32].batteryStats 	"energy (mWs)" 	0
scalar SASim.node[32].batteryStats 	"time (s)" 	0
scalar SASim.node[33].nic.mac 	ACK_count 	116
scalar SASim.node[33].nic.mac 	channelSwitching_count 	3031
scalar SASim.node[33].nic.mac 	"Total number of packets sent" 	116
scalar SASim.node[33].nic.phy 	nbFramesWithInterference 	456
scalar SASim.node[33].nic.phy 	nbFramesWithoutInterference 	9089
scalar SASim.node[33].nic.phy 	nbFramesWithInterferencePartial 	0
scalar SASim.node[33].nic.phy 	nbFramesWithoutInterferencePartial 	0
scalar SASim.node[33].nic.phy 	nbFramesWithInterferenceDropped 	186
scalar SASim.node[33].nic.phy 	nbFramesWithoutInterferenceDropped 	0
scalar SASim.node[33].appl 	"Total simulation time " 	60
scalar SASim.node[33].appl 	"Total number of generated packets " 	120
scalar SASim.node[33].batteryStats 	nominal 	13320000
attr unit  mW-s
scalar SASim.node[33].batteryStats 	total 	3642.4192061275
attr unit  mW-s
scalar SASim.node[33].batteryStats 	lifetime 	-1
attr unit  s
scalar SASim.node[33].batteryStats 	"Mean power consumption" 	60.706986768792
attr unit  mW
scalar SASim.node[33].batteryStats 	"num devices" 	1
scalar SASim.node[33].batteryStats 	"physical layer" 	0
scalar SASim.node[33].batteryStats 	"device total (mWs)" 	3642.4192147197
scalar SASim.node[33].batteryStats 	account 	0
scalar SASim.node[33].batteryStats 	"energy (mWs)" 	0
scalar SASim.node[33].batteryStats 	"time (s)" 	0
scalar SASim.node[33].batteryStats 	account 	1
scalar SASim.node[33].batteryStats 	"energy (mWs)" 	3596.5414643197
scalar SASim.node[33].batteryStats 	"time (s)" 	59.270624
scalar SASim.node[33].batteryStats 	account 	2
scalar SASim.node[33].batteryStats 	"energy (mWs)" 	45.8777504
scalar SASim.node[33].batteryStats 	"time (s)" 	0.729376
scalar SASim.node[33].batteryStats 	account 	3
scalar SASim.node[33].batteryStats 	"energy (mWs)" 	0
scalar SASim.node[33].batteryStats 	"time (s)" 	0
scalar SASim.node[33].batteryStats 	account 	4
scalar SASim.node[33].batteryStats 	"energy (mWs)" 	0
scalar SASim.node[33].batteryStats 	"time (s)" 	0
scalar SASim.node[34].nic.mac 	ACK_count 	0
scalar SASim.node[34].nic.mac 	channelSwitching_count 	0
scalar SASim.node[34].nic.mac 	"Total number of packets sent" 	0
scalar SASim.node[34].nic.phy 	nbFramesWithInterference 	479
scalar SASim.node[34].nic.phy 	nbFramesWithoutInterference 	9072
scalar SASim.node[34].nic.phy 	nbFramesWithInterferencePartial 	0
scalar SASim.node[34].nic.phy 	nbFramesWithoutInterferencePartial 	0
scalar SASim.node[34].nic.phy 	nbFramesWithInterferenceDropped 	293
scalar SASim.node[34].nic.phy 	nbFramesWithoutInterferenceDropped 	0
scalar SASim.node[34].appl 	"Total simulation time " 	60
scalar SASim.node[34].appl 	"Total number of generated packets " 	0
scalar SASim.node[34].batteryStats 	nominal 	13320000
attr unit  mW-s
scalar SASim.node[34].batteryStats 	total 	3640.9606132824
attr unit  mW-s
scalar SASim.node[34].batteryStats 	lifetime 	-1
attr unit  s
scalar SASim.node[34].batteryStats 	"Mean power consumption" 	60.68267688804
attr unit  mW
scalar SASim.node[34].batteryStats 	"num devices" 	1
scalar SASim.node[34].batteryStats 	"physical layer" 	0
scalar SASim.node[34].batteryStats 	"device total (mWs)" 	3640.9606214397
scalar SASim.node[34].batteryStats 	account 	0
scalar SASim.node[34].batteryStats 	"energy (mWs)" 	0
scalar SASim.node[34].batteryStats 	"time (s)" 	0
scalar SASim.node[34].batteryStats 	account 	1
scalar SASim.node[34].batteryStats 	"energy (mWs)" 	3636.4096806397
scalar SASim.node[34].batteryStats 	"time (s)" 	59.927648
scalar SASim.node[34].batteryStats 	account 	2
scalar SASim.node[34].batteryStats 	"energy (mWs)" 	4.5509408
scalar SASim.node[34].batteryStats 	"time (s)" 	0.072352
scalar SASim.node[34].batteryStats 	account 	3
scalar SASim.node[34].batteryStats 	"energy (mWs)" 	0
scalar SASim.node[34].batteryStats 	"time (s)" 	0
scalar SASim.node[34].batteryStats 	account 	4
scalar SASim.node[34].batteryStats 	"energy (mWs)" 	0
scalar SASim.node[34].batteryStats 	"time (s)" 	0
scalar SASim.node[35].nic.mac 	ACK_count 	119
scalar SASim.node[35].nic.mac 	channelSwitching_count 	3020
scalar SASim.node[35].nic.mac 	"Total number of packets sent" 	119
scalar SASim.node[35].nic.phy 	nbFramesWithInterference 	445
scalar SASim.node[35].nic.phy 	nbFramesWithoutInterference 	9091
scalar SASim.node[35].nic.phy 	nbFramesWithInterferencePartial 	0
scalar SASim.node[35].nic.phy 	nbFramesWithoutInterferencePartial 	0
scalar SASim.node[35].nic.phy 	nbFramesWithInterferenceDropped 	178
scalar SASim.node[35].nic.phy 	nbFramesWithoutInterferenceDropped 	0
scalar SASim.node[35].appl 	"Total simulation time " 	60
scalar SASim.node[35].appl 	"Total number of generated packets " 	120
scalar SASim.node[35].batteryStats 	nominal 	13320000
attr unit  mW-s
scalar SASim.node[35].batteryStats 	total 	3642.4536250252
attr unit  mW-s
scalar SASim.node[35].batteryStats 	lifetime 	-1
attr unit  s
scalar SASim.node[35].batteryStats 	"Mean power consumption" 	60.707560417087
attr unit  mW
scalar SASim.node[35].batteryStats 	"num devices" 	1
scalar SASim.node[35].batteryStats 	"physical layer" 	0
scalar SASim.node[35].batteryStats 	"device total (mWs)" 	3642.4536335997
scalar SASim.node[35].batteryStats 	account 	0
scalar SASim.node[35].batteryStats 	"energy (mWs)" 	0
scalar SASim.node[35].batteryStats 	"time (s)" 	0
scalar SASim.node[35].batteryStats 	account 	1
scalar SASim.node[35].batteryStats 	"energy (mWs)" 	3595.6006815997
scalar SASim.node[35].batteryStats 	"time (s)" 	59.25512
scalar SASim.node[35].batteryStats 	account 	2
scalar SASim.node[35].batteryStats 	"energy (mWs)" 	46.852952
scalar SASim.node[35].batteryStats 	"time (s)" 	0.74488
scalar SASim.node[35].batteryStats 	account 	3
scalar SASim.node[35].batteryStats 	"energy (mWs)" 	0
scalar SASim.node[35].batteryStats 	"time (s)" 	0
scalar SASim.node[35].batteryStats 	account 	4
scalar SASim.node[35].batteryStats 	"energy (mWs)" 	0
scalar SASim.node[35].batteryStats 	"time (s)" 	0
scalar SASim.node[36].nic.mac 	ACK_count 	0
scalar SASim.node[36].nic.mac 	channelSwitching_count 	0
scalar SASim.node[36].nic.mac 	"Total number of packets sent" 	0
scalar SASim.node[36].nic.phy 	nbFramesWithInterference 	486
scalar SASim.node[36].nic.phy 	nbFramesWithoutInterference 	8847
scalar SASim.node[36].nic.phy 	nbFramesWithInterferencePartial 	0
scalar SASim.node[36].nic.phy 	nbFramesWithoutInterferencePartial 	0
scalar SASim.node[36].nic.phy 	nbFramesWithInterferenceDropped 	293
scalar SASim.node[36].nic.phy 	nbFramesWithoutInterferenceDropped 	0
scalar SASim.node[36].appl 	"Total simulation time " 	60
scalar SASim.node[36].appl 	"Total number of generated packets " 	0
scalar SASim.node[36].batteryStats 	nominal 	13320000
attr unit  mW-s
scalar SASim.node[36].batteryStats 	total 	3640.9579139259
attr unit  mW-s
scalar SASim.node[36].batteryStats 	lifetime 	-1
attr unit  s
scalar SASim.node[36].batteryStats 	"Mean power consumption" 	60.682631898765
attr unit  mW
scalar SASim.node[36].batteryStats 	"num devices" 	1
scalar SASim.node[36].batteryStats 	"physical layer" 	0
scalar SASim.node[36].batteryStats 	"device total (mWs)" 	3640.9579219197
scalar SASim.node[36].batteryStats 	account 	0
scalar SASim.node[36].batteryStats 	"energy (mWs)" 	0
scalar SASim.node[36].batteryStats 	"time (s)" 	0
scalar SASim.node[36].batteryStats 	account 	1
scalar SASim.node[36].batteryStats 	"energy (mWs)" 	3636.4834675197
scalar SASim.node[36].batteryStats 	"time (s)" 	59.928864
scalar SASim.node[36].batteryStats 	account 	2
scalar SASim.node[36].batteryStats 	"energy (mWs)" 	4.4744544
scalar SASim.node[36].batteryStats 	"time (s)" 	0.071136
scalar SASim.node[36].batteryStats 	account 	3
scalar SASim.node[36].batteryStats 	"energy (mWs)" 	0
scalar SASim.node[36].batteryStats 	"time (s)" 	0
scalar SASim.node[36].batteryStats 	account 	4
scalar SASim.node[36].batteryStats 	"energy (mWs)" 	0
scalar SASim.node[36].batteryStats 	"time (s)" 	0
scalar SASim.node[37].nic.mac 	ACK_count 	117
scalar SASim.node[37].nic.mac 	channelSwitching_count 	2949
scalar SASim.node[37].nic.mac 	"Total number of packets sent" 	117
scalar SASim.node[37].nic.phy 	nbFramesWithInterference 	454
scalar SASim.node[37].nic.phy 	nbFramesWithoutInterference 	8856
scalar SASim.node[37].nic.phy 	nbFramesWithInterferencePartial 	0
scalar SASim.node[37].nic.phy 	nbFramesWithoutInterferencePartial 	0
scalar SASim.node[37].nic.phy 	nbFramesWithInterferenceDropped 	186
scalar SASim.node[37].nic.phy 	nbFramesWithoutInterferenceDropped 	0
scalar SASim.node[37].appl 	"Total simulation time " 	60
scalar SASim.node[37].appl 	"Total number of generated packets " 	120
scalar SASim.node[37].batteryStats 	nominal 	13320000
attr unit  mW-s
scalar SASim.node[37].batteryStats 	total 	3642.4283349551
attr unit  mW-s
scalar SASim.node[37].batteryStats 	lifetime 	-1
attr unit  s
scalar SASim.node[37].batteryStats 	"Mean power consumption" 	60.707138915919
attr unit  mW
scalar SASim.node[37].batteryStats 	"num devices" 	1
scalar SASim.node[37].batteryStats 	"physical layer" 	0
scalar SASim.node[37].batteryStats 	"device total (mWs)" 	3642.4283433597
scalar SASim.node[37].batteryStats 	account 	0
scalar SASim.node[37].batteryStats 	"energy (mWs)" 	0
scalar SASim.node[37].batteryStats 	"time (s)" 	0
scalar SASim.node[37].batteryStats 	account 	1
scalar SASim.node[37].batteryStats 	"energy (mWs)" 	3596.2919481597
scalar SASim.node[37].batteryStats 	"time (s)" 	59.266512
scalar SASim.node[37].batteryStats 	account 	2
scalar SASim.node[37].batteryStats 	"energy (mWs)" 	46.1363952
scalar SASim.node[37].batteryStats 	"time (s)" 	0.733488
scalar SASim.node[37].batteryStats 	account 	3
scalar SASim.node[37].batteryStats 	"energy (mWs)" 	0
scalar SASim.node[37].batteryStats 	"time (s)" 	0
scalar SASim.node[37].batteryStats 	account 	4
scalar SASim.node[37].batteryStats 	"energy (mWs)" 	0
scalar SASim.node[37].batteryStats 	"time (s)" 	0
scalar SASim.node[38].nic.mac 	ACK_count 	0
scalar SASim.node[38].nic.mac 	channelSwitching_count 	0
scalar SASim.node[38].nic.mac 	"Total number of packets sent" 	0
scalar SASim.node[38].nic.phy 	nbFramesWithInterference 	440
scalar SASim.node[38].nic.phy 	nbFramesWithoutInterference 	9101
scalar SASim.node[38].nic.phy 	nbFramesWithInterferencePartial 	0
scalar SASim.node[38].nic.phy 	nbFramesWithoutInterferencePartial 	0
scalar SASim.node[38].nic.phy 	nbFramesWithInterferenceDropped 	321
scalar SASim.node[38].nic.phy 	nbFramesWithoutInterferenceDropped 	0
scalar SASim.node[38].appl 	"Total simulation time " 	60
scalar SASim.node[38].appl 	"Total number of generated packets " 	0
scalar SASim.node[38].batteryStats 	nominal 	13320000
attr unit  mW-s
scalar SASim.node[38].batteryStats 	total 	3640.9592634737
attr unit  mW-s
scalar SASim.node[38].batteryStats 	lifetime 	-1
attr unit  s
scalar SASim.node[38].batteryStats 	"Mean power consumption" 	60.682654391229
attr unit  mW
scalar SASim.node[38].batteryStats 	"num devices" 	1
scalar SASim.node[38].batteryStats 	"physical layer" 	0
scalar SASim.node[38].batteryStats 	"device total (mWs)" 	3640.9592716796
scalar SASim.node[38].batteryStats 	account 	0
scalar SASim.node[38].batteryStats 	"energy (mWs)" 	0
scalar SASim.node[38].batteryStats 	"time (s)" 	0
scalar SASim.node[38].batteryStats 	account 	1
scalar SASim.node[38].batteryStats 	"energy (mWs)" 	3636.4465740796
scalar SASim.node[38].batteryStats 	"time (s)" 	59.928256
scalar SASim.node[38].batteryStats 	account 	2
scalar SASim.node[38].batteryStats 	"energy (mWs)" 	4.5126976
scalar SASim.node[38].batteryStats 	"time (s)" 	0.071744
scalar SASim.node[38].batteryStats 	account 	3
scalar SASim.node[38].batteryStats 	"energy (mWs)" 	0
scalar SASim.node[38].batteryStats 	"time (s)" 	0
scalar SASim.node[38].batteryStats 	account 	4
scalar SASim.node[38].batteryStats 	"energy (mWs)" 	0
scalar SASim.node[38].batteryStats 	"time (s)" 	0
scalar SASim.node[39].nic.mac 	ACK_count 	118
scalar SASim.node[39].nic.mac 	channelSwitching_count 	3040
scalar SASim.node[39].nic.mac 	"Total number of packets sent" 	118
scalar SASim.node[39].nic.phy 	nbFramesWithInterference 	447
scalar SASim.node[39].nic.phy 	nbFramesWithoutInterference 	9109
scalar SASim.node[39].nic.phy 	nbFramesWithInterferencePartial 	0
scalar SASim.node[39].nic.phy 	nbFramesWithoutInterferencePartial 	0
scalar SASim.node[39].nic.phy 	nbFramesWithInterferenceDropped 	184
scalar SASim.node[39].nic.phy 	nbFramesWithoutInterferenceDropped 	0
scalar SASim.node[39].appl 	"Total simulation time " 	60
scalar SASim.node[39].appl 	"Total number of generated packets " 	120
scalar SASim.node[39].batteryStats 	nominal 	13320000
attr unit  mW-s
scalar SASim.node[39].batteryStats 	total 	3642.4343376253
attr unit  mW-s
scalar SASim.node[39].batteryStats 	lifetime 	-1
attr unit  s
scalar SASim.node[39].batteryStats 	"Mean power consumption" 	60.707238960421
attr unit  mW
scalar SASim.node[39].batteryStats 	"num devices" 	1
scalar SASim.node[39].batteryStats 	"physical layer" 	0
scalar SASim.node[39].batteryStats 	"device total (mWs)" 	3642.4343462396
scalar SASim.node[39].batteryStats 	account 	0
scalar SASim.node[39].batteryStats 	"energy (mWs)" 	0
scalar SASim.node[39].batteryStats 	"time (s)" 	0
scalar SASim.node[39].batteryStats 	account 	1
scalar SASim.node[39].batteryStats 	"energy (mWs)" 	3596.1278694396
scalar SASim.node[39].batteryStats 	"time (s)" 	59.263808
scalar SASim.node[39].batteryStats 	account 	2
scalar SASim.node[39].batteryStats 	"energy (mWs)" 	46.3064768
scalar SASim.node[39].batteryStats 	"time (s)" 	0.736192
scalar SASim.node[39].batteryStats 	account 	3
[...]
scalar SASim.node[91].nic.phy 	nbFramesWithoutInterferenceDropped 	0
scalar SASim.node[91].appl 	"Total simulation time " 	60
scalar SASim.node[91].appl 	"Total number of generated packets " 	120
scalar SASim.node[91].batteryStats 	nominal 	13320000
attr unit  mW-s
scalar SASim.node[91].batteryStats 	total 	3642.4278018288
attr unit  mW-s
scalar SASim.node[91].batteryStats 	lifetime 	-1
attr unit  s
scalar SASim.node[91].batteryStats 	"Mean power consumption" 	60.707130030481
attr unit  mW
scalar SASim.node[91].batteryStats 	"num devices" 	1
scalar SASim.node[91].batteryStats 	"physical layer" 	0
scalar SASim.node[91].batteryStats 	"device total (mWs)" 	3642.4278105597
scalar SASim.node[91].batteryStats 	account 	0
scalar SASim.node[91].batteryStats 	"energy (mWs)" 	0
scalar SASim.node[91].batteryStats 	"time (s)" 	0
scalar SASim.node[91].batteryStats 	account 	1
scalar SASim.node[91].batteryStats 	"energy (mWs)" 	3596.3065113597
scalar SASim.node[91].batteryStats 	"time (s)" 	59.266752
scalar SASim.node[91].batteryStats 	account 	2
scalar SASim.node[91].batteryStats 	"energy (mWs)" 	46.1212992
scalar SASim.node[91].batteryStats 	"time (s)" 	0.733248
scalar SASim.node[91].batteryStats 	account 	3
scalar SASim.node[91].batteryStats 	"energy (mWs)" 	0
scalar SASim.node[91].batteryStats 	"time (s)" 	0
scalar SASim.node[91].batteryStats 	account 	4
scalar SASim.node[91].batteryStats 	"energy (mWs)" 	0
scalar SASim.node[91].batteryStats 	"time (s)" 	0
scalar SASim.node[92].nic.mac 	ACK_count 	0
scalar SASim.node[92].nic.mac 	channelSwitching_count 	0
scalar SASim.node[92].nic.mac 	"Total number of packets sent" 	0
scalar SASim.node[92].nic.phy 	nbFramesWithInterference 	479
scalar SASim.node[92].nic.phy 	nbFramesWithoutInterference 	9241
scalar SASim.node[92].nic.phy 	nbFramesWithInterferencePartial 	0
scalar SASim.node[92].nic.phy 	nbFramesWithoutInterferencePartial 	0
scalar SASim.node[92].nic.phy 	nbFramesWithInterferenceDropped 	292
scalar SASim.node[92].nic.phy 	nbFramesWithoutInterferenceDropped 	0
scalar SASim.node[92].appl 	"Total simulation time " 	60
scalar SASim.node[92].appl 	"Total number of generated packets " 	0
scalar SASim.node[92].batteryStats 	nominal 	13320000
attr unit  mW-s
scalar SASim.node[92].batteryStats 	total 	3640.9585884977
attr unit  mW-s
scalar SASim.node[92].batteryStats 	lifetime 	-1
attr unit  s
scalar SASim.node[92].batteryStats 	"Mean power consumption" 	60.682643141629
attr unit  mW
scalar SASim.node[92].batteryStats 	"num devices" 	1
scalar SASim.node[92].batteryStats 	"physical layer" 	0
scalar SASim.node[92].batteryStats 	"device total (mWs)" 	3640.9585967996
scalar SASim.node[92].batteryStats 	account 	0
scalar SASim.node[92].batteryStats 	"energy (mWs)" 	0
scalar SASim.node[92].batteryStats 	"time (s)" 	0
scalar SASim.node[92].batteryStats 	account 	1
scalar SASim.node[92].batteryStats 	"energy (mWs)" 	3636.4650207996
scalar SASim.node[92].batteryStats 	"time (s)" 	59.92856
scalar SASim.node[92].batteryStats 	account 	2
scalar SASim.node[92].batteryStats 	"energy (mWs)" 	4.493576
scalar SASim.node[92].batteryStats 	"time (s)" 	0.07144
scalar SASim.node[92].batteryStats 	account 	3
scalar SASim.node[92].batteryStats 	"energy (mWs)" 	0
scalar SASim.node[92].batteryStats 	"time (s)" 	0
scalar SASim.node[92].batteryStats 	account 	4
scalar SASim.node[92].batteryStats 	"energy (mWs)" 	0
scalar SASim.node[92].batteryStats 	"time (s)" 	0
scalar SASim.node[93].nic.mac 	ACK_count 	117
scalar SASim.node[93].nic.mac 	channelSwitching_count 	3075
scalar SASim.node[93].nic.mac 	"Total number of packets sent" 	117
scalar SASim.node[93].nic.phy 	nbFramesWithInterference 	455
scalar SASim.node[93].nic.phy 	nbFramesWithoutInterference 	9231
scalar SASim.node[93].nic.phy 	nbFramesWithInterferencePartial 	0
scalar SASim.node[93].nic.phy 	nbFramesWithoutInterferencePartial 	0
scalar SASim.node[93].nic.phy 	nbFramesWithInterferenceDropped 	186
scalar SASim.node[93].nic.phy 	nbFramesWithoutInterferenceDropped 	0
scalar SASim.node[93].appl 	"Total simulation time " 	60
scalar SASim.node[93].appl 	"Total number of generated packets " 	120
scalar SASim.node[93].batteryStats 	nominal 	13320000
attr unit  mW-s
scalar SASim.node[93].batteryStats 	total 	3642.4345861599
attr unit  mW-s
scalar SASim.node[93].batteryStats 	lifetime 	-1
attr unit  s
scalar SASim.node[93].batteryStats 	"Mean power consumption" 	60.707243102665
attr unit  mW
scalar SASim.node[93].batteryStats 	"num devices" 	1
scalar SASim.node[93].batteryStats 	"physical layer" 	0
scalar SASim.node[93].batteryStats 	"device total (mWs)" 	3642.4345948796
scalar SASim.node[93].batteryStats 	account 	0
scalar SASim.node[93].batteryStats 	"energy (mWs)" 	0
scalar SASim.node[93].batteryStats 	"time (s)" 	0
scalar SASim.node[93].batteryStats 	account 	1
scalar SASim.node[93].batteryStats 	"energy (mWs)" 	3596.1210732796
scalar SASim.node[93].batteryStats 	"time (s)" 	59.263696
scalar SASim.node[93].batteryStats 	account 	2
scalar SASim.node[93].batteryStats 	"energy (mWs)" 	46.3135216
scalar SASim.node[93].batteryStats 	"time (s)" 	0.736304
scalar SASim.node[93].batteryStats 	account 	3
scalar SASim.node[93].batteryStats 	"energy (mWs)" 	0
scalar SASim.node[93].batteryStats 	"time (s)" 	0
scalar SASim.node[93].batteryStats 	account 	4
scalar SASim.node[93].batteryStats 	"energy (mWs)" 	0
scalar SASim.node[93].batteryStats 	"time (s)" 	0
scalar SASim.node[94].nic.mac 	ACK_count 	0
scalar SASim.node[94].nic.mac 	channelSwitching_count 	0
scalar SASim.node[94].nic.mac 	"Total number of packets sent" 	0
scalar SASim.node[94].nic.phy 	nbFramesWithInterference 	478
scalar SASim.node[94].nic.phy 	nbFramesWithoutInterference 	9138
scalar SASim.node[94].nic.phy 	nbFramesWithInterferencePartial 	0
scalar SASim.node[94].nic.phy 	nbFramesWithoutInterferencePartial 	0
scalar SASim.node[94].nic.phy 	nbFramesWithInterferenceDropped 	315
scalar SASim.node[94].nic.phy 	nbFramesWithoutInterferenceDropped 	0
scalar SASim.node[94].appl 	"Total simulation time " 	60
scalar SASim.node[94].appl 	"Total number of generated packets " 	0
scalar SASim.node[94].batteryStats 	nominal 	13320000
attr unit  mW-s
scalar SASim.node[94].batteryStats 	total 	3640.9592634439
attr unit  mW-s
scalar SASim.node[94].batteryStats 	lifetime 	-1
attr unit  s
scalar SASim.node[94].batteryStats 	"Mean power consumption" 	60.682654390732
attr unit  mW
scalar SASim.node[94].batteryStats 	"num devices" 	1
scalar SASim.node[94].batteryStats 	"physical layer" 	0
scalar SASim.node[94].batteryStats 	"device total (mWs)" 	3640.9592716796
scalar SASim.node[94].batteryStats 	account 	0
scalar SASim.node[94].batteryStats 	"energy (mWs)" 	0
scalar SASim.node[94].batteryStats 	"time (s)" 	0
scalar SASim.node[94].batteryStats 	account 	1
scalar SASim.node[94].batteryStats 	"energy (mWs)" 	3636.4465740796
scalar SASim.node[94].batteryStats 	"time (s)" 	59.928256
scalar SASim.node[94].batteryStats 	account 	2
scalar SASim.node[94].batteryStats 	"energy (mWs)" 	4.5126976
scalar SASim.node[94].batteryStats 	"time (s)" 	0.071744
scalar SASim.node[94].batteryStats 	account 	3
scalar SASim.node[94].batteryStats 	"energy (mWs)" 	0
scalar SASim.node[94].batteryStats 	"time (s)" 	0
scalar SASim.node[94].batteryStats 	account 	4
scalar SASim.node[94].batteryStats 	"energy (mWs)" 	0
scalar SASim.node[94].batteryStats 	"time (s)" 	0
scalar SASim.node[95].nic.mac 	ACK_count 	118
scalar SASim.node[95].nic.mac 	channelSwitching_count 	3050
scalar SASim.node[95].nic.mac 	"Total number of packets sent" 	118
scalar SASim.node[95].nic.phy 	nbFramesWithInterference 	458
scalar SASim.node[95].nic.phy 	nbFramesWithoutInterference 	9140
scalar SASim.node[95].nic.phy 	nbFramesWithInterferencePartial 	0
scalar SASim.node[95].nic.phy 	nbFramesWithoutInterferencePartial 	0
scalar SASim.node[95].nic.phy 	nbFramesWithInterferenceDropped 	196
scalar SASim.node[95].nic.phy 	nbFramesWithoutInterferenceDropped 	0
scalar SASim.node[95].appl 	"Total simulation time " 	60
scalar SASim.node[95].appl 	"Total number of generated packets " 	120
scalar SASim.node[95].batteryStats 	nominal 	13320000
attr unit  mW-s
scalar SASim.node[95].batteryStats 	total 	3642.4460591823
attr unit  mW-s
scalar SASim.node[95].batteryStats 	lifetime 	-1
attr unit  s
scalar SASim.node[95].batteryStats 	"Mean power consumption" 	60.707434319705
attr unit  mW
scalar SASim.node[95].batteryStats 	"num devices" 	1
scalar SASim.node[95].batteryStats 	"physical layer" 	0
scalar SASim.node[95].batteryStats 	"device total (mWs)" 	3642.4460678397
scalar SASim.node[95].batteryStats 	account 	0
scalar SASim.node[95].batteryStats 	"energy (mWs)" 	0
scalar SASim.node[95].batteryStats 	"time (s)" 	0
scalar SASim.node[95].batteryStats 	account 	1
scalar SASim.node[95].batteryStats 	"energy (mWs)" 	3595.8074790397
scalar SASim.node[95].batteryStats 	"time (s)" 	59.258528
scalar SASim.node[95].batteryStats 	account 	2
scalar SASim.node[95].batteryStats 	"energy (mWs)" 	46.6385888
scalar SASim.node[95].batteryStats 	"time (s)" 	0.741472
scalar SASim.node[95].batteryStats 	account 	3
scalar SASim.node[95].batteryStats 	"energy (mWs)" 	0
scalar SASim.node[95].batteryStats 	"time (s)" 	0
scalar SASim.node[95].batteryStats 	account 	4
scalar SASim.node[95].batteryStats 	"energy (mWs)" 	0
scalar SASim.node[95].batteryStats 	"time (s)" 	0
scalar SASim.node[96].nic.mac 	ACK_count 	0
scalar SASim.node[96].nic.mac 	channelSwitching_count 	0
scalar SASim.node[96].nic.mac 	"Total number of packets sent" 	0
scalar SASim.node[96].nic.phy 	nbFramesWithInterference 	506
scalar SASim.node[96].nic.phy 	nbFramesWithoutInterference 	9307
scalar SASim.node[96].nic.phy 	nbFramesWithInterferencePartial 	0
scalar SASim.node[96].nic.phy 	nbFramesWithoutInterferencePartial 	0
scalar SASim.node[96].nic.phy 	nbFramesWithInterferenceDropped 	278
scalar SASim.node[96].nic.phy 	nbFramesWithoutInterferenceDropped 	0
scalar SASim.node[96].appl 	"Total simulation time " 	60
scalar SASim.node[96].appl 	"Total number of generated packets " 	0
scalar SASim.node[96].batteryStats 	nominal 	13320000
attr unit  mW-s
scalar SASim.node[96].batteryStats 	total 	3640.957913518
attr unit  mW-s
scalar SASim.node[96].batteryStats 	lifetime 	-1
attr unit  s
scalar SASim.node[96].batteryStats 	"Mean power consumption" 	60.682631891966
attr unit  mW
scalar SASim.node[96].batteryStats 	"num devices" 	1
scalar SASim.node[96].batteryStats 	"physical layer" 	0
scalar SASim.node[96].batteryStats 	"device total (mWs)" 	3640.9579219197
scalar SASim.node[96].batteryStats 	account 	0
scalar SASim.node[96].batteryStats 	"energy (mWs)" 	0
scalar SASim.node[96].batteryStats 	"time (s)" 	0
scalar SASim.node[96].batteryStats 	account 	1
scalar SASim.node[96].batteryStats 	"energy (mWs)" 	3636.4834675197
scalar SASim.node[96].batteryStats 	"time (s)" 	59.928864
scalar SASim.node[96].batteryStats 	account 	2
scalar SASim.node[96].batteryStats 	"energy (mWs)" 	4.4744544
scalar SASim.node[96].batteryStats 	"time (s)" 	0.071136
scalar SASim.node[96].batteryStats 	account 	3
scalar SASim.node[96].batteryStats 	"energy (mWs)" 	0
scalar SASim.node[96].batteryStats 	"time (s)" 	0
scalar SASim.node[96].batteryStats 	account 	4
scalar SASim.node[96].batteryStats 	"energy (mWs)" 	0
scalar SASim.node[96].batteryStats 	"time (s)" 	0
scalar SASim.node[97].nic.mac 	ACK_count 	117
scalar SASim.node[97].nic.mac 	channelSwitching_count 	3107
scalar SASim.node[97].nic.mac 	"Total number of packets sent" 	117
scalar SASim.node[97].nic.phy 	nbFramesWithInterference 	452
scalar SASim.node[97].nic.phy 	nbFramesWithoutInterference 	9303
scalar SASim.node[97].nic.phy 	nbFramesWithInterferencePartial 	0
scalar SASim.node[97].nic.phy 	nbFramesWithoutInterferencePartial 	0
scalar SASim.node[97].nic.phy 	nbFramesWithInterferenceDropped 	190
scalar SASim.node[97].nic.phy 	nbFramesWithoutInterferenceDropped 	0
scalar SASim.node[97].appl 	"Total simulation time " 	60
scalar SASim.node[97].appl 	"Total number of generated packets " 	120
scalar SASim.node[97].batteryStats 	nominal 	13320000
attr unit  mW-s
scalar SASim.node[97].batteryStats 	total 	3642.4424004536
attr unit  mW-s
scalar SASim.node[97].batteryStats 	lifetime 	-1
attr unit  s
scalar SASim.node[97].batteryStats 	"Mean power consumption" 	60.707373340894
attr unit  mW
scalar SASim.node[97].batteryStats 	"num devices" 	1
scalar SASim.node[97].batteryStats 	"physical layer" 	0
scalar SASim.node[97].batteryStats 	"device total (mWs)" 	3642.4424092797
scalar SASim.node[97].batteryStats 	account 	0
scalar SASim.node[97].batteryStats 	"energy (mWs)" 	0
scalar SASim.node[97].batteryStats 	"time (s)" 	0
scalar SASim.node[97].batteryStats 	account 	1
scalar SASim.node[97].batteryStats 	"energy (mWs)" 	3595.9074796797
scalar SASim.node[97].batteryStats 	"time (s)" 	59.260176
scalar SASim.node[97].batteryStats 	account 	2
scalar SASim.node[97].batteryStats 	"energy (mWs)" 	46.5349296
scalar SASim.node[97].batteryStats 	"time (s)" 	0.739824
scalar SASim.node[97].batteryStats 	account 	3
scalar SASim.node[97].batteryStats 	"energy (mWs)" 	0
scalar SASim.node[97].batteryStats 	"time (s)" 	0
scalar SASim.node[97].batteryStats 	account 	4
scalar SASim.node[97].batteryStats 	"energy (mWs)" 	0
scalar SASim.node[97].batteryStats 	"time (s)" 	0
scalar SASim.node[98].nic.mac 	ACK_count 	0
scalar SASim.node[98].nic.mac 	channelSwitching_count 	0
scalar SASim.node[98].nic.mac 	"Total number of packets sent" 	0
scalar SASim.node[98].nic.phy 	nbFramesWithInterference 	480
scalar SASim.node[98].nic.phy 	nbFramesWithoutInterference 	8962
scalar SASim.node[98].nic.phy 	nbFramesWithInterferencePartial 	0
scalar SASim.node[98].nic.phy 	nbFramesWithoutInterferencePartial 	0
scalar SASim.node[98].nic.phy 	nbFramesWithInterferenceDropped 	280
scalar SASim.node[98].nic.phy 	nbFramesWithoutInterferenceDropped 	0
scalar SASim.node[98].appl 	"Total simulation time " 	60
scalar SASim.node[98].appl 	"Total number of generated packets " 	0
scalar SASim.node[98].batteryStats 	nominal 	13320000
attr unit  mW-s
scalar SASim.node[98].batteryStats 	total 	3640.9565640781
attr unit  mW-s
scalar SASim.node[98].batteryStats 	lifetime 	-1
attr unit  s
scalar SASim.node[98].batteryStats 	"Mean power consumption" 	60.682609401302
attr unit  mW
scalar SASim.node[98].batteryStats 	"num devices" 	1
scalar SASim.node[98].batteryStats 	"physical layer" 	0
scalar SASim.node[98].batteryStats 	"device total (mWs)" 	3640.9565721597
scalar SASim.node[98].batteryStats 	account 	0
scalar SASim.node[98].batteryStats 	"energy (mWs)" 	0
scalar SASim.node[98].batteryStats 	"time (s)" 	0
scalar SASim.node[98].batteryStats 	account 	1
scalar SASim.node[98].batteryStats 	"energy (mWs)" 	3636.5203609597
scalar SASim.node[98].batteryStats 	"time (s)" 	59.929472
scalar SASim.node[98].batteryStats 	account 	2
scalar SASim.node[98].batteryStats 	"energy (mWs)" 	4.4362112
scalar SASim.node[98].batteryStats 	"time (s)" 	0.070528
scalar SASim.node[98].batteryStats 	account 	3
scalar SASim.node[98].batteryStats 	"energy (mWs)" 	0
scalar SASim.node[98].batteryStats 	"time (s)" 	0
scalar SASim.node[98].batteryStats 	account 	4
scalar SASim.node[98].batteryStats 	"energy (mWs)" 	0
scalar SASim.node[98].batteryStats 	"time (s)" 	0
scalar SASim.node[99].nic.mac 	ACK_count 	116
scalar SASim.node[99].nic.mac 	channelSwitching_count 	2994
scalar SASim.node[99].nic.mac 	"Total number of packets sent" 	116
scalar SASim.node[99].nic.phy 	nbFramesWithInterference 	451
scalar SASim.node[99].nic.phy 	nbFramesWithoutInterference 	8957
scalar SASim.node[99].nic.phy 	nbFramesWithInterferencePartial 	0
scalar SASim.node[99].nic.phy 	nbFramesWithoutInterferencePartial 	0
scalar SASim.node[99].nic.phy 	nbFramesWithInterferenceDropped 	164
scalar SASim.node[99].nic.phy 	nbFramesWithoutInterferenceDropped 	0
scalar SASim.node[99].appl 	"Total simulation time " 	60
scalar SASim.node[99].appl 	"Total number of generated packets " 	120
scalar SASim.node[99].batteryStats 	nominal 	13320000
attr unit  mW-s
scalar SASim.node[99].batteryStats 	total 	3642.4317092542
attr unit  mW-s
scalar SASim.node[99].batteryStats 	lifetime 	-1
attr unit  s
scalar SASim.node[99].batteryStats 	"Mean power consumption" 	60.707195154236
attr unit  mW
scalar SASim.node[99].batteryStats 	"num devices" 	1
scalar SASim.node[99].batteryStats 	"physical layer" 	0
scalar SASim.node[99].batteryStats 	"device total (mWs)" 	3642.4317177597
scalar SASim.node[99].batteryStats 	account 	0
scalar SASim.node[99].batteryStats 	"energy (mWs)" 	0
scalar SASim.node[99].batteryStats 	"time (s)" 	0
scalar SASim.node[99].batteryStats 	account 	1
scalar SASim.node[99].batteryStats 	"energy (mWs)" 	3596.1997145597
scalar SASim.node[99].batteryStats 	"time (s)" 	59.264992
scalar SASim.node[99].batteryStats 	account 	2
scalar SASim.node[99].batteryStats 	"energy (mWs)" 	46.2320032
scalar SASim.node[99].batteryStats 	"time (s)" 	0.735008
scalar SASim.node[99].batteryStats 	account 	3
scalar SASim.node[99].batteryStats 	"energy (mWs)" 	0
scalar SASim.node[99].batteryStats 	"time (s)" 	0
scalar SASim.node[99].batteryStats 	account 	4
scalar SASim.node[99].batteryStats 	"energy (mWs)" 	0
scalar SASim.node[99].batteryStats 	"time (s)" 	0
scalar SASim.spectrumDatabase[0].nic.mac 	ACK_count 	0
scalar SASim.spectrumDatabase[0].nic.mac 	channelSwitching_count 	0
scalar SASim.spectrumDatabase[0].nic.mac 	"Total number of packets sent" 	0
scalar SASim.spectrumDatabase[0].nic.phy 	nbFramesWithInterference 	42
scalar SASim.spectrumDatabase[0].nic.phy 	nbFramesWithoutInterference 	1605
scalar SASim.spectrumDatabase[0].nic.phy 	nbFramesWithInterferencePartial 	0
scalar SASim.spectrumDatabase[0].nic.phy 	nbFramesWithoutInterferencePartial 	0
scalar SASim.spectrumDatabase[0].nic.phy 	nbFramesWithInterferenceDropped 	29
scalar SASim.spectrumDatabase[0].nic.phy 	nbFramesWithoutInterferenceDropped 	0
scalar SASim.spectrumDatabase[0].appl 	"broadcast queued" 	0
scalar SASim.spectrumDatabase[0].appl 	"replies sent" 	11
scalar SASim.spectrumDatabase[0].appl 	"replies received" 	0
scalar SASim.spectrumDatabase[0].appl 	"Total simulation time " 	60
scalar SASim.spectrumDatabase[0].batteryStats 	nominal 	13320000000
attr unit  mW-s
scalar SASim.spectrumDatabase[0].batteryStats 	total 	13306683640.815
attr unit  mW-s
scalar SASim.spectrumDatabase[0].batteryStats 	lifetime 	-1
attr unit  s
scalar SASim.spectrumDatabase[0].batteryStats 	"Mean power consumption" 	221778060.68025
attr unit  mW
scalar SASim.spectrumDatabase[0].batteryStats 	"num devices" 	1
scalar SASim.spectrumDatabase[0].batteryStats 	"physical layer" 	0
scalar SASim.spectrumDatabase[0].batteryStats 	"device total (mWs)" 	3640.81484736
scalar SASim.spectrumDatabase[0].batteryStats 	account 	0
scalar SASim.spectrumDatabase[0].batteryStats 	"energy (mWs)" 	0
scalar SASim.spectrumDatabase[0].batteryStats 	"time (s)" 	0
scalar SASim.spectrumDatabase[0].batteryStats 	account 	1
scalar SASim.spectrumDatabase[0].batteryStats 	"energy (mWs)" 	3640.39417216
scalar SASim.spectrumDatabase[0].batteryStats 	"time (s)" 	59.993312
scalar SASim.spectrumDatabase[0].batteryStats 	account 	2
scalar SASim.spectrumDatabase[0].batteryStats 	"energy (mWs)" 	0.4206752
scalar SASim.spectrumDatabase[0].batteryStats 	"time (s)" 	0.006688
scalar SASim.spectrumDatabase[0].batteryStats 	account 	3
scalar SASim.spectrumDatabase[0].batteryStats 	"energy (mWs)" 	0
scalar SASim.spectrumDatabase[0].batteryStats 	"time (s)" 	0
scalar SASim.spectrumDatabase[0].batteryStats 	account 	4
scalar SASim.spectrumDatabase[0].batteryStats 	"energy (mWs)" 	0
scalar SASim.spectrumDatabase[0].batteryStats 	"time (s)" 	0
